<?xml version="1.0" encoding="UTF-8"?>

<!-- generated on 2025-06-25 15:23:29.254476 by randomTrips.py v1_21_0+0000-d7b3b481c43
<configuration>
    <net-file value="networks/2_identical_intersections/testcase 1/net.net.xml"/>
    <output-trip-file value="networks/2_identical_intersections/testcase 1/trips.trips.xml"/>
    <route-file value="networks/2_identical_intersections/testcase 1/routes.rou.xml"/>
    <fringe-factor value="10"/>
    <period value="0.5"/>
</configuration>
-->

<!-- generated on 2025-06-25 15:23:28 by Eclipse SUMO duarouter Version 1.21.0
<duarouterConfiguration xmlns:xsi="http://www.w3.org/2001/XMLSchema-instance" xsi:noNamespaceSchemaLocation="http://sumo.dlr.de/xsd/duarouterConfiguration.xsd">

    <input>
        <net-file value="networks/2_identical_intersections/testcase 1/net.net.xml"/>
        <route-files value="networks/2_identical_intersections/testcase 1/trips.trips.xml"/>
    </input>

    <output>
        <output-file value="networks/2_identical_intersections/testcase 1/routes.rou.xml"/>
        <alternatives-output value="NUL"/>
    </output>

    <time>
        <begin value="0.0"/>
        <end value="3600.0"/>
    </time>

    <report>
        <no-warnings value="true"/>
        <ignore-errors value="true"/>
        <no-step-log value="true"/>
    </report>

</duarouterConfiguration>
-->

<routes xmlns:xsi="http://www.w3.org/2001/XMLSchema-instance" xsi:noNamespaceSchemaLocation="http://sumo.dlr.de/xsd/routes_file.xsd">
    <vehicle id="2" depart="1.00">
        <route edges="3fi 3si 2o E1 E4 E5"/>
    </vehicle>
    <vehicle id="3" depart="1.50">
        <route edges="4fi 4si 1o"/>
    </vehicle>
    <vehicle id="5" depart="2.50">
        <route edges="-E6 -E3 -E1 2fi 2si 4o"/>
    </vehicle>
    <vehicle id="7" depart="3.50">
        <route edges="3fi 3si 2o E1"/>
    </vehicle>
    <vehicle id="8" depart="4.00">
        <route edges="-E6 -E3 E4"/>
    </vehicle>
    <vehicle id="10" depart="5.00">
        <route edges="4fi 4si 2o E1 E4 E5"/>
    </vehicle>
    <vehicle id="11" depart="5.50">
        <route edges="-E7 -E2 -E1 2fi 2si 1o"/>
    </vehicle>
    <vehicle id="13" depart="6.50">
        <route edges="-E5 -E4 -E1 2fi 2si 1o"/>
    </vehicle>
    <vehicle id="14" depart="7.00">
        <route edges="4fi 4si 2o E1 E4 E5"/>
    </vehicle>
    <vehicle id="15" depart="7.50">
        <route edges="4fi 4si 2o E1 E3 E6"/>
    </vehicle>
    <vehicle id="16" depart="8.00">
        <route edges="1fi 1si 2o E1 E2 E7"/>
    </vehicle>
    <vehicle id="18" depart="9.00">
        <route edges="4fi 4si 2o E1 E4 E5"/>
    </vehicle>
    <vehicle id="19" depart="9.50">
        <route edges="4fi 4si 2o E1 E3"/>
    </vehicle>
    <vehicle id="21" depart="10.50">
        <route edges="-E6 -E3 -E1 2fi 2si 3o"/>
    </vehicle>
    <vehicle id="22" depart="11.00">
        <route edges="-E5 -E4 -E1 2fi 2si"/>
    </vehicle>
    <vehicle id="23" depart="11.50">
        <route edges="-E5 -E4 -E1 2fi 2si 3o"/>
    </vehicle>
    <vehicle id="24" depart="12.00">
        <route edges="2si 3o"/>
    </vehicle>
    <vehicle id="25" depart="12.50">
        <route edges="-E7 -E2 -E1 2fi"/>
    </vehicle>
    <vehicle id="26" depart="13.00">
        <route edges="-E6 -E3 E2 E7"/>
    </vehicle>
    <vehicle id="30" depart="15.00">
        <route edges="E4 E5"/>
    </vehicle>
    <vehicle id="31" depart="15.50">
        <route edges="1fi 1si 2o E1 E4 E5"/>
    </vehicle>
    <vehicle id="32" depart="16.00">
        <route edges="4fi 4si 2o E1 E3 E6"/>
    </vehicle>
    <vehicle id="33" depart="16.50">
        <route edges="-E6 -E3"/>
    </vehicle>
    <vehicle id="34" depart="17.00">
        <route edges="-E6 -E3 -E1 2fi 2si 3o"/>
    </vehicle>
    <vehicle id="35" depart="17.50">
        <route edges="-E6 -E3 E2 E7"/>
    </vehicle>
    <vehicle id="36" depart="18.00">
        <route edges="4fi 4si 3o"/>
    </vehicle>
    <vehicle id="37" depart="18.50">
        <route edges="3fi 3si 4o"/>
    </vehicle>
    <vehicle id="39" depart="19.50">
        <route edges="-E6 -E3 -E1 2fi 2si 3o"/>
    </vehicle>
    <vehicle id="40" depart="20.00">
        <route edges="1fi 1si 3o"/>
    </vehicle>
    <vehicle id="41" depart="20.50">
        <route edges="1fi 1si 2o E1 E2 E7"/>
    </vehicle>
    <vehicle id="44" depart="22.00">
        <route edges="-E5 -E4"/>
    </vehicle>
    <vehicle id="46" depart="23.00">
        <route edges="3si 4o"/>
    </vehicle>
    <vehicle id="52" depart="26.00">
        <route edges="-E6 -E3 E4 E5"/>
    </vehicle>
    <vehicle id="53" depart="26.50">
        <route edges="-E5 -E4 -E1 2fi 2si 4o"/>
    </vehicle>
    <vehicle id="55" depart="27.50">
        <route edges="4fi 4si 3o"/>
    </vehicle>
    <vehicle id="57" depart="28.50">
        <route edges="4fi 4si 2o E1 E2 E7"/>
    </vehicle>
    <vehicle id="58" depart="29.00">
        <route edges="-E6 -E3 E4 E5"/>
    </vehicle>
    <vehicle id="59" depart="29.50">
        <route edges="2fi 2si 1o"/>
    </vehicle>
    <vehicle id="62" depart="31.00">
        <route edges="-E1 2fi 2si 3o"/>
    </vehicle>
    <vehicle id="64" depart="32.00">
        <route edges="4fi 4si 2o E1 E3 E6"/>
    </vehicle>
    <vehicle id="65" depart="32.50">
        <route edges="-E6 -E3 -E1 2fi 2si 1o"/>
    </vehicle>
    <vehicle id="66" depart="33.00">
        <route edges="4fi 4si 2o E1 E2 E7"/>
    </vehicle>
    <vehicle id="67" depart="33.50">
        <route edges="-E5 -E4 -E1 2fi 2si 4o"/>
    </vehicle>
    <vehicle id="68" depart="34.00">
        <route edges="-E5 -E4 E3 E6"/>
    </vehicle>
    <vehicle id="69" depart="34.50">
        <route edges="3fi 3si 1o"/>
    </vehicle>
    <vehicle id="70" depart="35.00">
        <route edges="1fi 1si 2o E1"/>
    </vehicle>
    <vehicle id="71" depart="35.50">
        <route edges="-E6 -E3 E2 E7"/>
    </vehicle>
    <vehicle id="72" depart="36.00">
        <route edges="-E7 -E2 -E1 2fi"/>
    </vehicle>
    <vehicle id="73" depart="36.50">
        <route edges="1fi 1si 2o E1 E3 E6"/>
    </vehicle>
    <vehicle id="74" depart="37.00">
        <route edges="-E6 -E3 -E1 2fi 2si 3o"/>
    </vehicle>
    <vehicle id="75" depart="37.50">
        <route edges="E4 E5"/>
    </vehicle>
    <vehicle id="76" depart="38.00">
        <route edges="-E7 -E2 -E1 2fi 2si 4o"/>
    </vehicle>
    <vehicle id="78" depart="39.00">
        <route edges="-E7 -E2 E4"/>
    </vehicle>
    <vehicle id="81" depart="40.50">
        <route edges="-E6 -E3 E2 E7"/>
    </vehicle>
    <vehicle id="82" depart="41.00">
        <route edges="4fi 4si 1o"/>
    </vehicle>
    <vehicle id="83" depart="41.50">
        <route edges="-E6 -E3 E4 E5"/>
    </vehicle>
    <vehicle id="84" depart="42.00">
        <route edges="-E6 -E3 -E1 2fi 2si 1o"/>
    </vehicle>
    <vehicle id="85" depart="42.50">
        <route edges="4si 2o E1 E3"/>
    </vehicle>
    <vehicle id="86" depart="43.00">
        <route edges="1fi 1si 2o E1 E3 E6"/>
    </vehicle>
    <vehicle id="88" depart="44.00">
        <route edges="-E5 -E4 -E1 2fi 2si 4o"/>
    </vehicle>
    <vehicle id="89" depart="44.50">
        <route edges="-E7 -E2 -E1 2fi 2si 4o"/>
    </vehicle>
    <vehicle id="90" depart="45.00">
        <route edges="3fi 3si 2o E1 E4 E5"/>
    </vehicle>
    <vehicle id="92" depart="46.00">
        <route edges="-E7 -E2 -E1 2fi 2si 3o"/>
    </vehicle>
    <vehicle id="93" depart="46.50">
        <route edges="4fi 4si 3o"/>
    </vehicle>
    <vehicle id="94" depart="47.00">
        <route edges="-E6 -E3 -E1 2fi 2si 4o"/>
    </vehicle>
    <vehicle id="95" depart="47.50">
        <route edges="-E7 -E2 -E1 2fi 2si 3o"/>
    </vehicle>
    <vehicle id="96" depart="48.00">
        <route edges="-E6 -E3 E2 E7"/>
    </vehicle>
    <vehicle id="97" depart="48.50">
        <route edges="-E7 -E2 E3 E6"/>
    </vehicle>
    <vehicle id="100" depart="50.00">
        <route edges="E2 E7"/>
    </vehicle>
    <vehicle id="101" depart="50.50">
        <route edges="4fi 4si 1o"/>
    </vehicle>
    <vehicle id="103" depart="51.50">
        <route edges="-E7 -E2 -E1 2fi 2si 1o"/>
    </vehicle>
    <vehicle id="106" depart="53.00">
        <route edges="-E7 -E2 -E1 2fi 2si 4o"/>
    </vehicle>
    <vehicle id="107" depart="53.50">
        <route edges="E1 E2 E7"/>
    </vehicle>
    <vehicle id="108" depart="54.00">
        <route edges="1fi 1si 2o E1 E4 E5"/>
    </vehicle>
    <vehicle id="109" depart="54.50">
        <route edges="-E5 -E4 -E1 2fi 2si 3o"/>
    </vehicle>
    <vehicle id="111" depart="55.50">
        <route edges="1fi 1si 2o E1 E3 E6"/>
    </vehicle>
    <vehicle id="113" depart="56.50">
        <route edges="1fi 1si 2o E1 E3 E6"/>
    </vehicle>
    <vehicle id="114" depart="57.00">
        <route edges="-E5 -E4 E2 E7"/>
    </vehicle>
    <vehicle id="115" depart="57.50">
        <route edges="-E5 -E4 -E1 2fi 2si 1o"/>
    </vehicle>
    <vehicle id="116" depart="58.00">
        <route edges="1si 2o E1 E4 E5"/>
    </vehicle>
    <vehicle id="117" depart="58.50">
        <route edges="-E6 -E3 -E1 2fi 2si 1o"/>
    </vehicle>
    <vehicle id="118" depart="59.00">
        <route edges="4fi 4si 3o"/>
    </vehicle>
    <vehicle id="119" depart="59.50">
        <route edges="1fi 1si 2o E1 E4 E5"/>
    </vehicle>
    <vehicle id="120" depart="60.00">
        <route edges="-E7 -E2 E4"/>
    </vehicle>
    <vehicle id="121" depart="60.50">
        <route edges="1fi 1si 2o E1 E2 E7"/>
    </vehicle>
    <vehicle id="122" depart="61.00">
        <route edges="-E6 -E3 E4 E5"/>
    </vehicle>
    <vehicle id="123" depart="61.50">
        <route edges="-E6 -E3 -E1 2fi 2si 4o"/>
    </vehicle>
    <vehicle id="126" depart="63.00">
        <route edges="-E5 -E4 -E1 2fi 2si 4o"/>
    </vehicle>
    <vehicle id="128" depart="64.00">
        <route edges="-E5 -E4 -E1 2fi"/>
    </vehicle>
    <vehicle id="129" depart="64.50">
        <route edges="-E6 -E3 E2 E7"/>
    </vehicle>
    <vehicle id="130" depart="65.00">
        <route edges="4fi 4si 2o E1 E2 E7"/>
    </vehicle>
    <vehicle id="131" depart="65.50">
        <route edges="-E7 -E2 -E1 2fi 2si 1o"/>
    </vehicle>
    <vehicle id="132" depart="66.00">
        <route edges="4fi 4si 2o E1 E4 E5"/>
    </vehicle>
    <vehicle id="135" depart="67.50">
        <route edges="4fi 4si 3o"/>
    </vehicle>
    <vehicle id="136" depart="68.00">
        <route edges="3fi 3si 2o E1 E2 E7"/>
    </vehicle>
    <vehicle id="137" depart="68.50">
        <route edges="-E5 -E4 -E1 2fi 2si 1o"/>
    </vehicle>
    <vehicle id="139" depart="69.50">
        <route edges="-E6 -E3 E4 E5"/>
    </vehicle>
    <vehicle id="142" depart="71.00">
        <route edges="1fi 1si 2o E1 E2 E7"/>
    </vehicle>
    <vehicle id="143" depart="71.50">
        <route edges="4fi 4si 1o"/>
    </vehicle>
    <vehicle id="144" depart="72.00">
        <route edges="-E7 -E2 -E1 2fi 2si 3o"/>
    </vehicle>
    <vehicle id="146" depart="73.00">
        <route edges="2si 3o"/>
    </vehicle>
    <vehicle id="147" depart="73.50">
        <route edges="3fi 3si 2o E1"/>
    </vehicle>
    <vehicle id="148" depart="74.00">
        <route edges="-E7 -E2 -E1"/>
    </vehicle>
    <vehicle id="149" depart="74.50">
        <route edges="-E5 -E4 E2 E7"/>
    </vehicle>
    <vehicle id="150" depart="75.00">
        <route edges="4fi 4si 2o E1"/>
    </vehicle>
    <vehicle id="151" depart="75.50">
        <route edges="4fi 4si 2o E1 E4"/>
    </vehicle>
    <vehicle id="152" depart="76.00">
        <route edges="-E5 -E4 -E1 2fi 2si 1o"/>
    </vehicle>
    <vehicle id="153" depart="76.50">
        <route edges="-E6 -E3 E2 E7"/>
    </vehicle>
    <vehicle id="154" depart="77.00">
        <route edges="3si 2o E1 E3 E6"/>
    </vehicle>
    <vehicle id="156" depart="78.00">
        <route edges="-E6 -E3 -E1 2fi 2si 1o"/>
    </vehicle>
    <vehicle id="157" depart="78.50">
        <route edges="3fi 3si 2o E1 E2 E7"/>
    </vehicle>
    <vehicle id="158" depart="79.00">
        <route edges="-E7 -E2 E4 E5"/>
    </vehicle>
    <vehicle id="159" depart="79.50">
        <route edges="-E5 -E4 E2 E7"/>
    </vehicle>
    <vehicle id="160" depart="80.00">
        <route edges="4fi 4si 2o E1 E2 E7"/>
    </vehicle>
    <vehicle id="161" depart="80.50">
        <route edges="4fi 4si 2o E1 E2 E7"/>
    </vehicle>
    <vehicle id="162" depart="81.00">
        <route edges="-E2 E3 E6"/>
    </vehicle>
    <vehicle id="164" depart="82.00">
        <route edges="4fi 4si 2o E1 E3 E6"/>
    </vehicle>
    <vehicle id="165" depart="82.50">
        <route edges="4fi 4si 3o"/>
    </vehicle>
    <vehicle id="166" depart="83.00">
        <route edges="3si 1o"/>
    </vehicle>
    <vehicle id="167" depart="83.50">
        <route edges="4fi 4si 2o E1 E3 E6"/>
    </vehicle>
    <vehicle id="169" depart="84.50">
        <route edges="1fi 1si 3o"/>
    </vehicle>
    <vehicle id="170" depart="85.00">
        <route edges="3si 2o"/>
    </vehicle>
    <vehicle id="172" depart="86.00">
        <route edges="-E7 -E2 E3 E6"/>
    </vehicle>
    <vehicle id="174" depart="87.00">
        <route edges="2si 4o"/>
    </vehicle>
    <vehicle id="176" depart="88.00">
        <route edges="4si 1o"/>
    </vehicle>
    <vehicle id="179" depart="89.50">
        <route edges="-E5 -E4 -E1 2fi 2si 4o"/>
    </vehicle>
    <vehicle id="181" depart="90.50">
        <route edges="1si 4o"/>
    </vehicle>
    <vehicle id="182" depart="91.00">
        <route edges="-E7 -E2 E3"/>
    </vehicle>
    <vehicle id="183" depart="91.50">
        <route edges="-E6 -E3 E4 E5"/>
    </vehicle>
    <vehicle id="185" depart="92.50">
        <route edges="1fi 1si 2o E1 E4 E5"/>
    </vehicle>
    <vehicle id="186" depart="93.00">
        <route edges="3fi 3si 2o E1 E4 E5"/>
    </vehicle>
    <vehicle id="187" depart="93.50">
        <route edges="-E7 -E2 -E1 2fi 2si 1o"/>
    </vehicle>
    <vehicle id="191" depart="95.50">
        <route edges="-E6 -E3 -E1 2fi 2si 4o"/>
    </vehicle>
    <vehicle id="192" depart="96.00">
        <route edges="-E7 -E2 -E1 2fi 2si 3o"/>
    </vehicle>
    <vehicle id="193" depart="96.50">
        <route edges="-E5 -E4 -E1 2fi 2si 4o"/>
    </vehicle>
    <vehicle id="194" depart="97.00">
        <route edges="4si 2o E1 E4 E5"/>
    </vehicle>
    <vehicle id="195" depart="97.50">
        <route edges="4fi 4si 2o E1 E4 E5"/>
    </vehicle>
    <vehicle id="197" depart="98.50">
        <route edges="-E1 2fi 2si 3o"/>
    </vehicle>
    <vehicle id="198" depart="99.00">
        <route edges="-E7 -E2 E3"/>
    </vehicle>
    <vehicle id="199" depart="99.50">
        <route edges="3fi 3si 4o"/>
    </vehicle>
    <vehicle id="200" depart="100.00">
        <route edges="-E7 -E2 -E1 2fi"/>
    </vehicle>
    <vehicle id="201" depart="100.50">
        <route edges="1fi 1si 2o E1 E2 E7"/>
    </vehicle>
    <vehicle id="202" depart="101.00">
        <route edges="3si 1o"/>
    </vehicle>
    <vehicle id="203" depart="101.50">
        <route edges="-E5 -E4 -E1 2fi 2si 4o"/>
    </vehicle>
    <vehicle id="205" depart="102.50">
        <route edges="4fi 4si 2o E1 E3 E6"/>
    </vehicle>
    <vehicle id="206" depart="103.00">
        <route edges="3fi 3si 2o"/>
    </vehicle>
    <vehicle id="208" depart="104.00">
        <route edges="-E6 -E3 -E1 2fi 2si 4o"/>
    </vehicle>
    <vehicle id="209" depart="104.50">
        <route edges="4fi 4si 1o"/>
    </vehicle>
    <vehicle id="210" depart="105.00">
        <route edges="-E7 -E2 E4 E5"/>
    </vehicle>
    <vehicle id="211" depart="105.50">
        <route edges="-E6 -E3 E4 E5"/>
    </vehicle>
    <vehicle id="212" depart="106.00">
        <route edges="1fi 1si 3o"/>
    </vehicle>
    <vehicle id="214" depart="107.00">
        <route edges="3fi 3si 2o E1 E3 E6"/>
    </vehicle>
    <vehicle id="215" depart="107.50">
        <route edges="-E5 -E4 -E1 2fi 2si 4o"/>
    </vehicle>
    <vehicle id="216" depart="108.00">
        <route edges="-E5 -E4 E2 E7"/>
    </vehicle>
    <vehicle id="219" depart="109.50">
        <route edges="-E7 -E2 E3 E6"/>
    </vehicle>
    <vehicle id="220" depart="110.00">
        <route edges="3fi 3si 2o E1 E2 E7"/>
    </vehicle>
    <vehicle id="221" depart="110.50">
        <route edges="1si 2o E1 E2 E7"/>
    </vehicle>
    <vehicle id="222" depart="111.00">
        <route edges="4fi 4si 2o E1 E4 E5"/>
    </vehicle>
    <vehicle id="223" depart="111.50">
        <route edges="3fi 3si 4o"/>
    </vehicle>
    <vehicle id="224" depart="112.00">
        <route edges="4fi 4si 2o E1"/>
    </vehicle>
    <vehicle id="225" depart="112.50">
        <route edges="4fi 4si 2o E1 E3 E6"/>
    </vehicle>
    <vehicle id="226" depart="113.00">
        <route edges="1fi 1si 3o"/>
    </vehicle>
    <vehicle id="227" depart="113.50">
        <route edges="-E6 -E3 E4 E5"/>
    </vehicle>
    <vehicle id="228" depart="114.00">
        <route edges="3fi 3si 4o"/>
    </vehicle>
    <vehicle id="230" depart="115.00">
        <route edges="-E5 -E4 -E1 2fi 2si 3o"/>
    </vehicle>
    <vehicle id="231" depart="115.50">
        <route edges="-E6 -E3 -E1 2fi 2si 3o"/>
    </vehicle>
    <vehicle id="233" depart="116.50">
        <route edges="-E6 -E3 E4 E5"/>
    </vehicle>
    <vehicle id="234" depart="117.00">
        <route edges="3fi 3si 1o"/>
    </vehicle>
    <vehicle id="236" depart="118.00">
        <route edges="-E7 -E2 -E1 2fi"/>
    </vehicle>
    <vehicle id="238" depart="119.00">
        <route edges="1fi 1si 2o E1 E4 E5"/>
    </vehicle>
    <vehicle id="239" depart="119.50">
        <route edges="4fi 4si 2o E1 E3 E6"/>
    </vehicle>
    <vehicle id="240" depart="120.00">
        <route edges="-E7 -E2 -E1"/>
    </vehicle>
    <vehicle id="241" depart="120.50">
        <route edges="-E7 -E2 E3 E6"/>
    </vehicle>
    <vehicle id="242" depart="121.00">
        <route edges="4fi 4si 2o E1 E2 E7"/>
    </vehicle>
    <vehicle id="243" depart="121.50">
        <route edges="-E7 -E2 E3 E6"/>
    </vehicle>
    <vehicle id="244" depart="122.00">
        <route edges="1fi 1si 2o E1 E4 E5"/>
    </vehicle>
    <vehicle id="247" depart="123.50">
        <route edges="-E7 -E2 E4 E5"/>
    </vehicle>
    <vehicle id="248" depart="124.00">
        <route edges="-E7 -E2 -E1 2fi 2si 1o"/>
    </vehicle>
    <vehicle id="252" depart="126.00">
        <route edges="-E3 E4 E5"/>
    </vehicle>
    <vehicle id="253" depart="126.50">
        <route edges="-E5 -E4 -E1 2fi 2si 4o"/>
    </vehicle>
    <vehicle id="255" depart="127.50">
        <route edges="-E6 -E3 -E1 2fi 2si 3o"/>
    </vehicle>
    <vehicle id="256" depart="128.00">
        <route edges="3fi 3si"/>
    </vehicle>
    <vehicle id="257" depart="128.50">
        <route edges="3fi 3si 2o E1 E3 E6"/>
    </vehicle>
    <vehicle id="258" depart="129.00">
        <route edges="-E6 -E3 -E1 2fi 2si 1o"/>
    </vehicle>
    <vehicle id="261" depart="130.50">
        <route edges="3fi 3si 2o E1 E3 E6"/>
    </vehicle>
    <vehicle id="262" depart="131.00">
        <route edges="3fi 3si 2o E1 E3 E6"/>
    </vehicle>
    <vehicle id="264" depart="132.00">
        <route edges="-E2 -E1 2fi 2si 1o"/>
    </vehicle>
    <vehicle id="266" depart="133.00">
        <route edges="1fi 1si 2o"/>
    </vehicle>
    <vehicle id="267" depart="133.50">
        <route edges="3fi 3si 2o E1 E3 E6"/>
    </vehicle>
    <vehicle id="269" depart="134.50">
        <route edges="3fi 3si 1o"/>
    </vehicle>
    <vehicle id="270" depart="135.00">
        <route edges="4fi 4si 2o E1 E2 E7"/>
    </vehicle>
    <vehicle id="272" depart="136.00">
        <route edges="-E6 -E3 E4 E5"/>
    </vehicle>
    <vehicle id="274" depart="137.00">
        <route edges="3fi 3si 1o"/>
    </vehicle>
    <vehicle id="275" depart="137.50">
        <route edges="3fi 3si 2o E1 E4 E5"/>
    </vehicle>
    <vehicle id="276" depart="138.00">
        <route edges="-E5 -E4 E3 E6"/>
    </vehicle>
    <vehicle id="277" depart="138.50">
        <route edges="4fi 4si 2o E1 E4 E5"/>
    </vehicle>
    <vehicle id="278" depart="139.00">
        <route edges="-E5 -E4 E2 E7"/>
    </vehicle>
    <vehicle id="280" depart="140.00">
        <route edges="-E7 -E2 -E1 2fi 2si 3o"/>
    </vehicle>
    <vehicle id="281" depart="140.50">
        <route edges="1fi 1si 3o"/>
    </vehicle>
    <vehicle id="282" depart="141.00">
        <route edges="4fi 4si 2o E1 E3 E6"/>
    </vehicle>
    <vehicle id="283" depart="141.50">
        <route edges="-E5 -E4 E2 E7"/>
    </vehicle>
    <vehicle id="285" depart="142.50">
        <route edges="3fi 3si 4o"/>
    </vehicle>
    <vehicle id="286" depart="143.00">
        <route edges="3fi 3si 2o E1 E2 E7"/>
    </vehicle>
    <vehicle id="288" depart="144.00">
        <route edges="1fi 1si 4o"/>
    </vehicle>
    <vehicle id="289" depart="144.50">
        <route edges="-E7 -E2 E3 E6"/>
    </vehicle>
    <vehicle id="291" depart="145.50">
        <route edges="4fi 4si 1o"/>
    </vehicle>
    <vehicle id="292" depart="146.00">
        <route edges="4fi 4si 3o"/>
    </vehicle>
    <vehicle id="293" depart="146.50">
        <route edges="1fi 1si 2o E1 E4 E5"/>
    </vehicle>
    <vehicle id="295" depart="147.50">
        <route edges="4fi 4si 1o"/>
    </vehicle>
    <vehicle id="301" depart="150.50">
        <route edges="1fi 1si 2o E1 E3 E6"/>
    </vehicle>
    <vehicle id="302" depart="151.00">
        <route edges="3fi 3si 2o E1 E4 E5"/>
    </vehicle>
    <vehicle id="303" depart="151.50">
        <route edges="1fi 1si 2o E1 E3 E6"/>
    </vehicle>
    <vehicle id="306" depart="153.00">
        <route edges="1fi 1si 4o"/>
    </vehicle>
    <vehicle id="307" depart="153.50">
        <route edges="1fi 1si 4o"/>
    </vehicle>
    <vehicle id="310" depart="155.00">
        <route edges="-E6 -E3 -E1 2fi 2si 1o"/>
    </vehicle>
    <vehicle id="311" depart="155.50">
        <route edges="-E6 -E3 -E1 2fi 2si 1o"/>
    </vehicle>
    <vehicle id="312" depart="156.00">
        <route edges="1fi 1si 2o E1 E3 E6"/>
    </vehicle>
    <vehicle id="314" depart="157.00">
        <route edges="1fi 1si 2o E1 E4 E5"/>
    </vehicle>
    <vehicle id="316" depart="158.00">
        <route edges="-E6 -E3 -E1 2fi 2si 1o"/>
    </vehicle>
    <vehicle id="319" depart="159.50">
        <route edges="1fi 1si 3o"/>
    </vehicle>
    <vehicle id="321" depart="160.50">
        <route edges="3fi 3si 1o"/>
    </vehicle>
    <vehicle id="323" depart="161.50">
        <route edges="4fi 4si 2o E1 E3"/>
    </vehicle>
    <vehicle id="324" depart="162.00">
        <route edges="1fi 1si 4o"/>
    </vehicle>
    <vehicle id="325" depart="162.50">
        <route edges="-E5 -E4"/>
    </vehicle>
    <vehicle id="329" depart="164.50">
        <route edges="-E4 -E1 2fi 2si 1o"/>
    </vehicle>
    <vehicle id="330" depart="165.00">
        <route edges="1fi 1si 3o"/>
    </vehicle>
    <vehicle id="332" depart="166.00">
        <route edges="3fi 3si 2o E1 E4 E5"/>
    </vehicle>
    <vehicle id="333" depart="166.50">
        <route edges="3si 2o"/>
    </vehicle>
    <vehicle id="334" depart="167.00">
        <route edges="1fi 1si 4o"/>
    </vehicle>
    <vehicle id="335" depart="167.50">
        <route edges="-E7 -E2 E3 E6"/>
    </vehicle>
    <vehicle id="338" depart="169.00">
        <route edges="3fi 3si 2o E1 E2 E7"/>
    </vehicle>
    <vehicle id="339" depart="169.50">
        <route edges="-E6 -E3 -E1 2fi"/>
    </vehicle>
    <vehicle id="340" depart="170.00">
        <route edges="3fi 3si 1o"/>
    </vehicle>
    <vehicle id="341" depart="170.50">
        <route edges="-E5 -E4 -E1 2fi 2si 1o"/>
    </vehicle>
    <vehicle id="342" depart="171.00">
        <route edges="-E1 2fi 2si 4o"/>
    </vehicle>
    <vehicle id="343" depart="171.50">
        <route edges="1fi 1si 3o"/>
    </vehicle>
    <vehicle id="344" depart="172.00">
        <route edges="-E6 -E3 E4 E5"/>
    </vehicle>
    <vehicle id="345" depart="172.50">
        <route edges="3fi 3si 4o"/>
    </vehicle>
    <vehicle id="346" depart="173.00">
        <route edges="3fi 3si 2o E1 E2 E7"/>
    </vehicle>
    <vehicle id="347" depart="173.50">
        <route edges="3si 2o E1 E4 E5"/>
    </vehicle>
    <vehicle id="348" depart="174.00">
        <route edges="3fi 3si 2o E1 E2 E7"/>
    </vehicle>
    <vehicle id="351" depart="175.50">
        <route edges="4fi 4si 1o"/>
    </vehicle>
    <vehicle id="352" depart="176.00">
        <route edges="-E5 -E4 -E1 2fi 2si 3o"/>
    </vehicle>
    <vehicle id="353" depart="176.50">
        <route edges="3fi 3si 2o E1 E3"/>
    </vehicle>
    <vehicle id="354" depart="177.00">
        <route edges="-E6 -E3 -E1 2fi 2si 1o"/>
    </vehicle>
    <vehicle id="355" depart="177.50">
        <route edges="3fi 3si 2o E1 E4 E5"/>
    </vehicle>
    <vehicle id="358" depart="179.00">
        <route edges="-E3 -E1 2fi 2si 4o"/>
    </vehicle>
    <vehicle id="359" depart="179.50">
        <route edges="-E6 -E3 -E1 2fi 2si 3o"/>
    </vehicle>
    <vehicle id="360" depart="180.00">
        <route edges="-E5 -E4 E2 E7"/>
    </vehicle>
    <vehicle id="361" depart="180.50">
        <route edges="4fi 4si 2o E1 E3"/>
    </vehicle>
    <vehicle id="362" depart="181.00">
        <route edges="E1 E2 E7"/>
    </vehicle>
    <vehicle id="365" depart="182.50">
        <route edges="1fi 1si 2o E1 E4 E5"/>
    </vehicle>
    <vehicle id="366" depart="183.00">
        <route edges="4fi 4si 1o"/>
    </vehicle>
    <vehicle id="367" depart="183.50">
        <route edges="1fi 1si 2o E1 E4 E5"/>
    </vehicle>
    <vehicle id="369" depart="184.50">
        <route edges="-E7 -E2 -E1 2fi 2si 3o"/>
    </vehicle>
    <vehicle id="370" depart="185.00">
        <route edges="3fi 3si 2o E1 E3 E6"/>
    </vehicle>
    <vehicle id="371" depart="185.50">
        <route edges="-E7 -E2 E4 E5"/>
    </vehicle>
    <vehicle id="372" depart="186.00">
        <route edges="-E6 -E3 E2 E7"/>
    </vehicle>
    <vehicle id="373" depart="186.50">
        <route edges="4fi 4si 2o E1"/>
    </vehicle>
    <vehicle id="374" depart="187.00">
        <route edges="-E7 -E2 -E1 2fi 2si 3o"/>
    </vehicle>
    <vehicle id="375" depart="187.50">
        <route edges="-E6 -E3 E2 E7"/>
    </vehicle>
    <vehicle id="376" depart="188.00">
        <route edges="-E7 -E2 -E1 2fi 2si 4o"/>
    </vehicle>
    <vehicle id="377" depart="188.50">
        <route edges="E4 E5"/>
    </vehicle>
    <vehicle id="378" depart="189.00">
        <route edges="1fi 1si 4o"/>
    </vehicle>
    <vehicle id="379" depart="189.50">
        <route edges="-E5 -E4 -E1 2fi 2si 3o"/>
    </vehicle>
    <vehicle id="380" depart="190.00">
        <route edges="3fi 3si 2o E1 E4 E5"/>
    </vehicle>
    <vehicle id="382" depart="191.00">
        <route edges="1fi 1si 2o E1 E2 E7"/>
    </vehicle>
    <vehicle id="383" depart="191.50">
        <route edges="-E7 -E2 E4 E5"/>
    </vehicle>
    <vehicle id="384" depart="192.00">
        <route edges="-E5 -E4 E2 E7"/>
    </vehicle>
    <vehicle id="385" depart="192.50">
        <route edges="2fi 2si"/>
    </vehicle>
    <vehicle id="391" depart="195.50">
        <route edges="3fi 3si 4o"/>
    </vehicle>
    <vehicle id="396" depart="198.00">
        <route edges="4fi 4si 2o E1 E3 E6"/>
    </vehicle>
    <vehicle id="399" depart="199.50">
        <route edges="1fi 1si 2o E1 E3 E6"/>
    </vehicle>
    <vehicle id="400" depart="200.00">
        <route edges="-E6 -E3 -E1 2fi 2si 3o"/>
    </vehicle>
    <vehicle id="401" depart="200.50">
        <route edges="1fi 1si 2o E1 E2 E7"/>
    </vehicle>
    <vehicle id="403" depart="201.50">
        <route edges="1fi 1si 3o"/>
    </vehicle>
    <vehicle id="404" depart="202.00">
        <route edges="1fi 1si 2o E1"/>
    </vehicle>
    <vehicle id="405" depart="202.50">
        <route edges="-E7 -E2 -E1 2fi 2si 3o"/>
    </vehicle>
    <vehicle id="409" depart="204.50">
        <route edges="3fi 3si 2o E1 E4 E5"/>
    </vehicle>
    <vehicle id="411" depart="205.50">
        <route edges="3fi 3si 2o E1 E3 E6"/>
    </vehicle>
    <vehicle id="413" depart="206.50">
        <route edges="-E3 -E1 2fi 2si 4o"/>
    </vehicle>
    <vehicle id="414" depart="207.00">
        <route edges="1fi 1si 2o E1 E2 E7"/>
    </vehicle>
    <vehicle id="416" depart="208.00">
        <route edges="1fi 1si 4o"/>
    </vehicle>
    <vehicle id="417" depart="208.50">
        <route edges="3fi 3si 4o"/>
    </vehicle>
    <vehicle id="418" depart="209.00">
        <route edges="3fi 3si 1o"/>
    </vehicle>
    <vehicle id="419" depart="209.50">
        <route edges="1fi 1si 2o E1 E2 E7"/>
    </vehicle>
    <vehicle id="420" depart="210.00">
        <route edges="-E7 -E2 E4 E5"/>
    </vehicle>
    <vehicle id="421" depart="210.50">
        <route edges="3fi 3si 2o E1 E3 E6"/>
    </vehicle>
    <vehicle id="422" depart="211.00">
        <route edges="4fi 4si 2o E1 E3 E6"/>
    </vehicle>
    <vehicle id="423" depart="211.50">
        <route edges="-E7 -E2 -E1 2fi 2si 3o"/>
    </vehicle>
    <vehicle id="424" depart="212.00">
        <route edges="3fi 3si 2o E1 E3 E6"/>
    </vehicle>
    <vehicle id="427" depart="213.50">
        <route edges="4fi 4si 2o E1 E2 E7"/>
    </vehicle>
    <vehicle id="428" depart="214.00">
        <route edges="3fi 3si 4o"/>
    </vehicle>
    <vehicle id="431" depart="215.50">
        <route edges="3fi 3si 2o E1 E2 E7"/>
    </vehicle>
    <vehicle id="432" depart="216.00">
        <route edges="-E4 E3 E6"/>
    </vehicle>
    <vehicle id="433" depart="216.50">
        <route edges="-E6 -E3 -E1 2fi 2si 3o"/>
    </vehicle>
    <vehicle id="435" depart="217.50">
        <route edges="1fi 1si 2o E1 E3 E6"/>
    </vehicle>
    <vehicle id="436" depart="218.00">
        <route edges="-E5 -E4 -E1 2fi 2si 1o"/>
    </vehicle>
    <vehicle id="437" depart="218.50">
        <route edges="4fi 4si 2o E1 E4 E5"/>
    </vehicle>
    <vehicle id="438" depart="219.00">
        <route edges="-E6 -E3 E2 E7"/>
    </vehicle>
    <vehicle id="439" depart="219.50">