<additional>
    <entryExitDetector id="210_b0" freq="30" file="./detectors.xml">
	   <detEntry lane="43[1]_0" pos="32"/>
	   <detExit lane="43[1]_0" pos="87"/>
	</entryExitDetector>
    <entryExitDetector id="210_b1" freq="30" file="./detectors.xml">
	   <detEntry lane="43[1]_1" pos="32"/>
	   <detExit lane="43[1]_1" pos="87"/>
	</entryExitDetector>
    <entryExitDetector id="210_b2" freq="30" file="./detectors.xml">
	   <detEntry lane="43[1]_2" pos="32"/>
	   <detExit lane="43[1]_2" pos="87"/>
	</entryExitDetector>

    <entryExitDetector id="210_t0" freq="30" file="./detectors.xml">
	   <detEntry lane="34_0" pos="17"/>
	   <detExit lane="34_0" pos="72"/>
	</entryExitDetector>
    <entryExitDetector id="210_t1" freq="30" file="./detectors.xml">
	   <detEntry lane="34_1" pos="17"/>
	   <detExit lane="34_1" pos="72"/>
	</entryExitDetector>
    <entryExitDetector id="210_t2" freq="30" file="./detectors.xml">
	   <detEntry lane="34_2" pos="17"/>
	   <detExit lane="34_2" pos="72"/>
	</entryExitDetector>

    <entryExitDetector id="210_l0" freq="30" file="./detectors.xml">
	   <detEntry lane="46_0" pos="15"/>
	   <detExit lane="46_0" pos="70"/>
	</entryExitDetector>
    <entryExitDetector id="210_l1" freq="30" file="./detectors.xml">
	   <detEntry lane="46_1" pos="15"/>
	   <detExit lane="46_1" pos="70"/>
	</entryExitDetector>
    <entryExitDetector id="210_l2" freq="30" file="./detectors.xml">
	   <detEntry lane="46_2" pos="15"/>
	   <detExit lane="46_2" pos="70"/>
	</entryExitDetector>
    <entryExitDetector id="210_l3" freq="30" file="./detectors.xml">
	   <detEntry lane="117_0" pos="77"/>
	   <detExit lane="117_0" pos="132"/>
	</entryExitDetector>
    <entryExitDetector id="210_l4" freq="30" file="./detectors.xml">
	   <detEntry lane="43[0]_2" pos="0"/>
	   <detExit lane="43[0]_2" pos="25"/>
	</entryExitDetector>
    <entryExitDetector id="210_l5" freq="30" file="./detectors.xml">
	   <detEntry lane="210_2" pos="313"/>
	   <detExit lane="210_2" pos="368"/>
	</entryExitDetector>

    <entryExitDetector id="210_r1" freq="30" file="./detectors.xml">
	   <detEntry lane="31_1" pos="0"/>
	   <detExit lane="31_1" pos="15"/>
	</entryExitDetector>


    <entryExitDetector id="219_b0" freq="30" file="./detectors.xml">
	   <detEntry lane="11_0" pos="0"/>
	   <detExit lane="11_0" pos="39"/>
	</entryExitDetector>
    <entryExitDetector id="219_b1" freq="30" file="./detectors.xml">
	   <detEntry lane="11_1" pos="0"/>
	   <detExit lane="11_1" pos="39"/>
	</entryExitDetector>
    <entryExitDetector id="219_b2" freq="30" file="./detectors.xml">
	   <detEntry lane="11_2" pos="0"/>
	   <detExit lane="11_2" pos="39"/>
	</entryExitDetector>
    <entryExitDetector id="219_b3" freq="30" file="./detectors.xml">
	   <detEntry lane="68_0" pos="25"/>
	   <detExit lane="68_0" pos="80"/>
	</entryExitDetector>
    <entryExitDetector id="219_b4" freq="30" file="./detectors.xml">
	   <detEntry lane="68_1" pos="25"/>
	   <detExit lane="68_1" pos="80"/>
	</entryExitDetector>

    <entryExitDetector id="219_t0" freq="30" file="./detectors.xml">
	   <detEntry lane="12_0" pos="7"/>
	   <detExit lane="12_0" pos="62"/>
	</entryExitDetector>
    <entryExitDetector id="219_t1" freq="30" file="./detectors.xml">
	   <detEntry lane="12_1" pos="7"/>
	   <detExit lane="12_1" pos="62"/>
	</entryExitDetector>
    <entryExitDetector id="219_t2" freq="30" file="./detectors.xml">
	   <detEntry lane="12_2" pos="7"/>
	   <detExit lane="12_2" pos="62"/>
	</entryExitDetector>
	
    <entryExitDetector id="219_l0" freq="30" file="./detectors.xml">
	   <detEntry lane="85_0" pos="279"/>
	   <detExit lane="85_0" pos="334"/>
	</entryExitDetector>
    <entryExitDetector id="219_l1" freq="30" file="./detectors.xml">
	   <detEntry lane="85_1" pos="279"/>
	   <detExit lane="85_1" pos="334"/>
	</entryExitDetector>
    <entryExitDetector id="219_l2" freq="30" file="./detectors.xml">
	   <detEntry lane="85_2" pos="279"/>
	   <detExit lane="85_2" pos="334"/>
	</entryExitDetector>	

    <entryExitDetector id="219_r0" freq="30" file="./detectors.xml">
	   <detEntry lane="71_0" pos="10"/>
	   <detExit lane="71_0" pos="65"/>
	</entryExitDetector>
    <entryExitDetector id="219_r1" freq="30" file="./detectors.xml">
	   <detEntry lane="71_1" pos="10"/>
	   <detExit lane="71_1" pos="65"/>
	</entryExitDetector>
    <entryExitDetector id="219_r2" freq="30" file="./detectors.xml">
	   <detEntry lane="71_2" pos="10"/>
	   <detExit lane="71_2" pos="65"/>
	</entryExitDetector>
	

    <entryExitDetector id="221_b0" freq="30" file="./detectors.xml">
	   <detEntry lane="201_0" pos="185"/>
	   <detExit lane="201_0" pos="240"/>
	</entryExitDetector>
    <entryExitDetector id="221_b1" freq="30" file="./detectors.xml">
	   <detEntry lane="201_1" pos="185"/>
	   <detExit lane="201_1" pos="240"/>
	</entryExitDetector>
    <entryExitDetector id="221_b2" freq="30" file="./detectors.xml">
	   <detEntry lane="201_2" pos="185"/>
	   <detExit lane="201_2" pos="240"/>
	</entryExitDetector>
	
    <entryExitDetector id="221_t0" freq="30" file="./detectors.xml">
	   <detEntry lane="203[1]_0" pos="179"/>
	   <detExit lane="203[1]_0" pos="234"/>
	</entryExitDetector>
    <entryExitDetector id="221_t1" freq="30" file="./detectors.xml">
	   <detEntry lane="203[1]_1" pos="179"/>
	   <detExit lane="203[1]_1" pos="234"/>
	</entryExitDetector>
    <entryExitDetector id="221_t2" freq="30" file="./detectors.xml">
	   <detEntry lane="203[1]_2" pos="179"/>
	   <detExit lane="203[1]_2" pos="234"/>
	</entryExitDetector>
	
    <entryExitDetector id="221_l0" freq="30" file="./detectors.xml">
	   <detEntry lane="2_0" pos="0"/>
	   <detExit lane="2_0" pos="43"/>
	</entryExitDetector>
    <entryExitDetector id="221_l1" freq="30" file="./detectors.xml">
	   <detEntry lane="2_1" pos="0"/>
	   <detExit lane="2_1" pos="43"/>
	</entryExitDetector>
    <entryExitDetector id="221_l2" freq="30" file="./detectors.xml">
	   <detEntry lane="2_2" pos="0"/>
	   <detExit lane="2_2" pos="43"/>
	</entryExitDetector>		
    <entryExitDetector id="221_l3" freq="30" file="./detectors.xml">
	   <detEntry lane="1b_0" pos="9"/>
	   <detExit lane="1b_0" pos="64"/>
	</entryExitDetector>		
    <entryExitDetector id="221_l4" freq="30" file="./detectors.xml">
	   <detEntry lane="1b_1" pos="9"/>
	   <detExit lane="1b_1" pos="64"/>
	</entryExitDetector>		
    <entryExitDetector id="221_l5" freq="30" file="./detectors.xml">
	   <detEntry lane="3_1" pos="0"/>
	   <detExit lane="3_1" pos="19"/>
	</entryExitDetector>		
    <entryExitDetector id="221_l6" freq="30" file="./detectors.xml">
	   <detEntry lane="3_0" pos="0"/>
	   <detExit lane="3_0" pos="19"/>
	</entryExitDetector>		
    <entryExitDetector id="221_l7" freq="30" file="./detectors.xml">
	   <detEntry lane="122_0" pos="159"/>
	   <detExit lane="122_0" pos="214"/>
	</entryExitDetector>		
    <entryExitDetector id="221_l8" freq="30" file="./detectors.xml">
	   <detEntry lane="122_1" pos="159"/>
	   <detExit lane="122_1" pos="214"/>
	</entryExitDetector>		
    <entryExitDetector id="221_l9" freq="30" file="./detectors.xml">
	   <detEntry lane="122_2" pos="159"/>
	   <detExit lane="122_2" pos="214"/>
	</entryExitDetector>		

    <entryExitDetector id="235_b0" freq="30" file="./detectors.xml">
	   <detEntry lane="204a[0]_0" pos="138"/>
	   <detExit lane="204a[0]_0" pos="193"/>
	</entryExitDetector>
    <entryExitDetector id="235_b1" freq="30" file="./detectors.xml">
	   <detEntry lane="204a[0]_1" pos="138"/>
	   <detExit lane="204a[0]_1" pos="193"/>
	</entryExitDetector>
    <entryExitDetector id="235_b2" freq="30" file="./detectors.xml">
	   <detEntry lane="204a[0]_2" pos="138"/>
	   <detExit lane="204a[0]_2" pos="193"/>
	</entryExitDetector>

    <entryExitDetector id="235_t0" freq="30" file="./detectors.xml">
	   <detEntry lane="203[0]_0" pos="345"/>
	   <detExit lane="203[0]_0" pos="400"/>
	</entryExitDetector>
    <entryExitDetector id="235_t1" freq="30" file="./detectors.xml">
	   <detEntry lane="203[0]_1" pos="345"/>
	   <detExit lane="203[0]_1" pos="400"/>
	</entryExitDetector>
    <entryExitDetector id="235_t2" freq="30" file="./detectors.xml">
	   <detEntry lane="203[0]_2" pos="345"/>
	   <detExit lane="203[0]_2" pos="400"/>
	</entryExitDetector>

    <entryExitDetector id="235_l0" freq="30" file="./detectors.xml">
	   <detEntry lane="121_0" pos="638"/>
	   <detExit lane="121_0" pos="693"/>
	</entryExitDetector>

    <entryExitDetector id="235_r0" freq="30" file="./detectors.xml">
	   <detEntry lane="125_0" pos="0"/>
	   <detExit lane="125_0" pos="12"/>
	</entryExitDetector>
    <entryExitDetector id="235_r1" freq="30" file="./detectors.xml">
	   <detEntry lane="125_1" pos="0"/>
	   <detExit lane="125_1" pos="12"/>
	</entryExitDetector>
    <entryExitDetector id="235_r2" freq="30" file="./detectors.xml">
	   <detEntry lane="55b_1" pos="0"/>
	   <detExit lane="55b_1" pos="21"/>
	</entryExitDetector>
    <entryExitDetector id="235_r3" freq="30" file="./detectors.xml">
	   <detEntry lane="55_0" pos="258"/>
	   <detExit lane="55_0" pos="281"/>
	</entryExitDetector>	
</additional>
