<?xml version="1.0" encoding="UTF-8"?>

<!-- generated on 2025-06-11 17:27:19 by Eclipse SUMO netedit Version 1.21.0
-->

<routes xmlns:xsi="http://www.w3.org/2001/XMLSchema-instance" xsi:noNamespaceSchemaLocation="http://sumo.dlr.de/xsd/routes_file.xsd">
    <!-- Vehicles, persons and containers (sorted by depart) -->
    <flow id="east_to_west" begin="0.00" fromJunction="o6" toJunction="o1" end="1500.00" period="12.00"/>
    <flow id="north_east_north" begin="0.00" fromJunction="o4" toJunction="o5" end="1500.00" period="12.00"/>
    <flow id="north_to_south_0" begin="0.00" fromJunction="o4" toJunction="o3" end="3600.00" period="12.00"/>
    <flow id="north_to_south_1" begin="0.00" fromJunction="o5" toJunction="o7" end="1500.00" period="12.00"/>
    <flow id="south_east_south" begin="0.00" fromJunction="o3" toJunction="o7" end="1500.00" period="12.00"/>
    <flow id="west_to_east" begin="0.00" fromJunction="o1" toJunction="o6" end="1500.00" period="12.00"/>
    <flow id="south_to_west_0" begin="0.00" fromJunction="o3" toJunction="o1" end="3600.00" period="12.00"/>

    <vehicle id="2" depart="1002.00">
        <route edges="3fi 3si 2o E1 E4 E5"/>
    </vehicle>
    <vehicle id="3" depart="1003.00">
        <route edges="4fi 4si 1o"/>
    </vehicle>
    <vehicle id="5" depart="1005.00">
        <route edges="-E6 -E3 -E1 2fi 2si 4o"/>
    </vehicle>
    <vehicle id="7" depart="1007.00">
        <route edges="3fi 3si 2o E1"/>
    </vehicle>
    <vehicle id="8" depart="1008.00">
        <route edges="-E6 -E3 E4"/>
    </vehicle>
    <vehicle id="10" depart="1010.00">
        <route edges="4fi 4si 2o E1 E4 E5"/>
    </vehicle>
    <vehicle id="11" depart="1011.00">
        <route edges="-E7 -E2 -E1 2fi 2si 1o"/>
    </vehicle>
    <vehicle id="13" depart="1013.00">
        <route edges="-E5 -E4 -E1 2fi 2si 1o"/>
    </vehicle>
    <vehicle id="14" depart="1014.00">
        <route edges="4fi 4si 2o E1 E4 E5"/>
    </vehicle>
    <vehicle id="15" depart="1015.00">
        <route edges="4fi 4si 2o E1 E3 E6"/>
    </vehicle>
    <vehicle id="16" depart="1016.00">
        <route edges="1fi 1si 2o E1 E2 E7"/>
    </vehicle>
    <vehicle id="18" depart="1018.00">
        <route edges="4fi 4si 2o E1 E4 E5"/>
    </vehicle>
    <vehicle id="19" depart="1019.00">
        <route edges="4fi 4si 2o E1 E3"/>
    </vehicle>
    <vehicle id="21" depart="1021.00">
        <route edges="-E6 -E3 -E1 2fi 2si 3o"/>
    </vehicle>
    <vehicle id="22" depart="1022.00">
        <route edges="-E5 -E4 -E1 2fi 2si"/>
    </vehicle>
    <vehicle id="23" depart="1023.00">
        <route edges="-E5 -E4 -E1 2fi 2si 3o"/>
    </vehicle>
    <vehicle id="24" depart="1024.00">
        <route edges="2si 3o"/>
    </vehicle>
    <vehicle id="25" depart="1025.00">
        <route edges="-E7 -E2 -E1 2fi"/>
    </vehicle>
    <vehicle id="26" depart="1026.00">
        <route edges="-E6 -E3 E2 E7"/>
    </vehicle>
    <vehicle id="30" depart="1030.00">
        <route edges="E4 E5"/>
    </vehicle>
    <vehicle id="31" depart="1031.00">
        <route edges="1fi 1si 2o E1 E4 E5"/>
    </vehicle>
    <vehicle id="32" depart="1032.00">
        <route edges="4fi 4si 2o E1 E3 E6"/>
    </vehicle>
    <vehicle id="33" depart="1033.00">
        <route edges="-E6 -E3"/>
    </vehicle>
    <vehicle id="34" depart="1034.00">
        <route edges="-E6 -E3 -E1 2fi 2si 3o"/>
    </vehicle>
    <vehicle id="35" depart="1035.00">
        <route edges="-E6 -E3 E2 E7"/>
    </vehicle>
    <vehicle id="36" depart="1036.00">
        <route edges="4fi 4si 3o"/>
    </vehicle>
    <vehicle id="37" depart="1037.00">
        <route edges="3fi 3si 4o"/>
    </vehicle>
    <vehicle id="39" depart="1039.00">
        <route edges="-E6 -E3 -E1 2fi 2si 3o"/>
    </vehicle>
    <vehicle id="40" depart="1040.00">
        <route edges="1fi 1si 3o"/>
    </vehicle>
    <vehicle id="41" depart="1041.00">
        <route edges="1fi 1si 2o E1 E2 E7"/>
    </vehicle>
    <vehicle id="44" depart="1044.00">
        <route edges="-E5 -E4"/>
    </vehicle>
    <vehicle id="46" depart="1046.00">
        <route edges="3si 4o"/>
    </vehicle>
    <vehicle id="52" depart="1052.00">
        <route edges="-E6 -E3 E4 E5"/>
    </vehicle>
    <vehicle id="53" depart="1053.00">
        <route edges="-E5 -E4 -E1 2fi 2si 4o"/>
    </vehicle>
    <vehicle id="55" depart="1055.00">
        <route edges="4fi 4si 3o"/>
    </vehicle>
    <vehicle id="57" depart="1057.00">
        <route edges="4fi 4si 2o E1 E2 E7"/>
    </vehicle>
    <vehicle id="58" depart="1058.00">
        <route edges="-E6 -E3 E4 E5"/>
    </vehicle>
    <vehicle id="59" depart="1059.00">
        <route edges="2fi 2si 1o"/>
    </vehicle>
    <vehicle id="62" depart="1062.00">
        <route edges="-E1 2fi 2si 3o"/>
    </vehicle>
    <vehicle id="64" depart="1064.00">
        <route edges="4fi 4si 2o E1 E3 E6"/>
    </vehicle>
    <vehicle id="65" depart="1065.00">
        <route edges="-E6 -E3 -E1 2fi 2si 1o"/>
    </vehicle>
    <vehicle id="66" depart="1066.00">
        <route edges="4fi 4si 2o E1 E2 E7"/>
    </vehicle>
    <vehicle id="67" depart="1067.00">
        <route edges="-E5 -E4 -E1 2fi 2si 4o"/>
    </vehicle>
    <vehicle id="68" depart="1068.00">
        <route edges="-E5 -E4 E3 E6"/>
    </vehicle>
    <vehicle id="69" depart="1069.00">
        <route edges="3fi 3si 1o"/>
    </vehicle>
    <vehicle id="70" depart="1070.00">
        <route edges="1fi 1si 2o E1"/>
    </vehicle>
    <vehicle id="71" depart="1071.00">
        <route edges="-E6 -E3 E2 E7"/>
    </vehicle>
    <vehicle id="72" depart="1072.00">
        <route edges="-E7 -E2 -E1 2fi"/>
    </vehicle>
    <vehicle id="73" depart="1073.00">
        <route edges="1fi 1si 2o E1 E3 E6"/>
    </vehicle>
    <vehicle id="74" depart="1074.00">
        <route edges="-E6 -E3 -E1 2fi 2si 3o"/>
    </vehicle>
    <vehicle id="75" depart="1075.00">
        <route edges="E4 E5"/>
    </vehicle>
    <vehicle id="76" depart="1076.00">
        <route edges="-E7 -E2 -E1 2fi 2si 4o"/>
    </vehicle>
    <vehicle id="78" depart="1078.00">
        <route edges="-E7 -E2 E4"/>
    </vehicle>
    <vehicle id="81" depart="1081.00">
        <route edges="-E6 -E3 E2 E7"/>
    </vehicle>
    <vehicle id="82" depart="1082.00">
        <route edges="4fi 4si 1o"/>
    </vehicle>
    <vehicle id="83" depart="1083.00">
        <route edges="-E6 -E3 E4 E5"/>
    </vehicle>
    <vehicle id="84" depart="1084.00">
        <route edges="-E6 -E3 -E1 2fi 2si 1o"/>
    </vehicle>
    <vehicle id="85" depart="1085.00">
        <route edges="4si 2o E1 E3"/>
    </vehicle>
    <vehicle id="86" depart="1086.00">
        <route edges="1fi 1si 2o E1 E3 E6"/>
    </vehicle>
    <vehicle id="88" depart="1088.00">
        <route edges="-E5 -E4 -E1 2fi 2si 4o"/>
    </vehicle>
    <vehicle id="89" depart="1089.00">
        <route edges="-E7 -E2 -E1 2fi 2si 4o"/>
    </vehicle>
    <vehicle id="90" depart="1090.00">
        <route edges="3fi 3si 2o E1 E4 E5"/>
    </vehicle>
    <vehicle id="92" depart="1092.00">
        <route edges="-E7 -E2 -E1 2fi 2si 3o"/>
    </vehicle>
    <vehicle id="93" depart="1093.00">
        <route edges="4fi 4si 3o"/>
    </vehicle>
    <vehicle id="94" depart="1094.00">
        <route edges="-E6 -E3 -E1 2fi 2si 4o"/>
    </vehicle>
    <vehicle id="95" depart="1095.00">
        <route edges="-E7 -E2 -E1 2fi 2si 3o"/>
    </vehicle>
    <vehicle id="96" depart="1096.00">
        <route edges="-E6 -E3 E2 E7"/>
    </vehicle>
    <vehicle id="97" depart="1097.00">
        <route edges="-E7 -E2 E3 E6"/>
    </vehicle>
    <vehicle id="100" depart="1100.00">
        <route edges="E2 E7"/>
    </vehicle>
    <vehicle id="101" depart="1101.00">
        <route edges="4fi 4si 1o"/>
    </vehicle>
    <vehicle id="103" depart="1103.00">
        <route edges="-E7 -E2 -E1 2fi 2si 1o"/>
    </vehicle>
    <vehicle id="106" depart="1106.00">
        <route edges="-E7 -E2 -E1 2fi 2si 4o"/>
    </vehicle>
    <vehicle id="107" depart="1107.00">
        <route edges="E1 E2 E7"/>
    </vehicle>
    <vehicle id="108" depart="1108.00">
        <route edges="1fi 1si 2o E1 E4 E5"/>
    </vehicle>
    <vehicle id="109" depart="1109.00">
        <route edges="-E5 -E4 -E1 2fi 2si 3o"/>
    </vehicle>
    <vehicle id="111" depart="1111.00">
        <route edges="1fi 1si 2o E1 E3 E6"/>
    </vehicle>
    <vehicle id="113" depart="1113.00">
        <route edges="1fi 1si 2o E1 E3 E6"/>
    </vehicle>
    <vehicle id="114" depart="1114.00">
        <route edges="-E5 -E4 E2 E7"/>
    </vehicle>
    <vehicle id="115" depart="1115.00">
        <route edges="-E5 -E4 -E1 2fi 2si 1o"/>
    </vehicle>
    <vehicle id="116" depart="1116.00">
        <route edges="1si 2o E1 E4 E5"/>
    </vehicle>
    <vehicle id="117" depart="1117.00">
        <route edges="-E6 -E3 -E1 2fi 2si 1o"/>
    </vehicle>
    <vehicle id="118" depart="1118.00">
        <route edges="4fi 4si 3o"/>
    </vehicle>
    <vehicle id="119" depart="1119.00">
        <route edges="1fi 1si 2o E1 E4 E5"/>
    </vehicle>
    <vehicle id="120" depart="1120.00">
        <route edges="-E7 -E2 E4"/>
    </vehicle>
    <vehicle id="121" depart="1121.00">
        <route edges="1fi 1si 2o E1 E2 E7"/>
    </vehicle>
    <vehicle id="122" depart="1122.00">
        <route edges="-E6 -E3 E4 E5"/>
    </vehicle>
    <vehicle id="123" depart="1123.00">
        <route edges="-E6 -E3 -E1 2fi 2si 4o"/>
    </vehicle>
    <vehicle id="126" depart="1126.00">
        <route edges="-E5 -E4 -E1 2fi 2si 4o"/>
    </vehicle>
    <vehicle id="128" depart="1128.00">
        <route edges="-E5 -E4 -E1 2fi"/>
    </vehicle>
    <vehicle id="129" depart="1129.00">
        <route edges="-E6 -E3 E2 E7"/>
    </vehicle>
    <vehicle id="130" depart="1130.00">
        <route edges="4fi 4si 2o E1 E2 E7"/>
    </vehicle>
    <vehicle id="131" depart="1131.00">
        <route edges="-E7 -E2 -E1 2fi 2si 1o"/>
    </vehicle>
    <vehicle id="132" depart="1132.00">
        <route edges="4fi 4si 2o E1 E4 E5"/>
    </vehicle>
    <vehicle id="135" depart="1135.00">
        <route edges="4fi 4si 3o"/>
    </vehicle>
    <vehicle id="136" depart="1136.00">
        <route edges="3fi 3si 2o E1 E2 E7"/>
    </vehicle>
    <vehicle id="137" depart="1137.00">
        <route edges="-E5 -E4 -E1 2fi 2si 1o"/>
    </vehicle>
    <vehicle id="139" depart="1139.00">
        <route edges="-E6 -E3 E4 E5"/>
    </vehicle>
    <vehicle id="142" depart="1142.00">
        <route edges="1fi 1si 2o E1 E2 E7"/>
    </vehicle>
    <vehicle id="143" depart="1143.00">
        <route edges="4fi 4si 1o"/>
    </vehicle>
    <vehicle id="144" depart="1144.00">
        <route edges="-E7 -E2 -E1 2fi 2si 3o"/>
    </vehicle>
    <vehicle id="146" depart="1146.00">
        <route edges="2si 3o"/>
    </vehicle>
    <vehicle id="147" depart="1147.00">
        <route edges="3fi 3si 2o E1"/>
    </vehicle>
    <vehicle id="148" depart="1148.00">
        <route edges="-E7 -E2 -E1"/>
    </vehicle>
    <vehicle id="149" depart="1149.00">
        <route edges="-E5 -E4 E2 E7"/>
    </vehicle>
    <vehicle id="150" depart="1150.00">
        <route edges="4fi 4si 2o E1"/>
    </vehicle>
    <vehicle id="151" depart="1151.00">
        <route edges="4fi 4si 2o E1 E4"/>
    </vehicle>
    <vehicle id="152" depart="1152.00">
        <route edges="-E5 -E4 -E1 2fi 2si 1o"/>
    </vehicle>
    <vehicle id="153" depart="1153.00">
        <route edges="-E6 -E3 E2 E7"/>
    </vehicle>
    <vehicle id="154" depart="1154.00">
        <route edges="3si 2o E1 E3 E6"/>
    </vehicle>
    <vehicle id="156" depart="1156.00">
        <route edges="-E6 -E3 -E1 2fi 2si 1o"/>
    </vehicle>
    <vehicle id="157" depart="1157.00">
        <route edges="3fi 3si 2o E1 E2 E7"/>
    </vehicle>
    <vehicle id="158" depart="1158.00">
        <route edges="-E7 -E2 E4 E5"/>
    </vehicle>
    <vehicle id="159" depart="1159.00">
        <route edges="-E5 -E4 E2 E7"/>
    </vehicle>
    <vehicle id="160" depart="1160.00">
        <route edges="4fi 4si 2o E1 E2 E7"/>
    </vehicle>
    <vehicle id="161" depart="1161.00">
        <route edges="4fi 4si 2o E1 E2 E7"/>
    </vehicle>
    <vehicle id="162" depart="1162.00">
        <route edges="-E2 E3 E6"/>
    </vehicle>
    <vehicle id="164" depart="1164.00">
        <route edges="4fi 4si 2o E1 E3 E6"/>
    </vehicle>
    <vehicle id="165" depart="1165.00">
        <route edges="4fi 4si 3o"/>
    </vehicle>
    <vehicle id="166" depart="1166.00">
        <route edges="3si 1o"/>
    </vehicle>
    <vehicle id="167" depart="1167.00">
        <route edges="4fi 4si 2o E1 E3 E6"/>
    </vehicle>
    <vehicle id="169" depart="1169.00">
        <route edges="1fi 1si 3o"/>
    </vehicle>
    <vehicle id="170" depart="1170.00">
        <route edges="3si 2o"/>
    </vehicle>
    <vehicle id="172" depart="1172.00">
        <route edges="-E7 -E2 E3 E6"/>
    </vehicle>
    <vehicle id="174" depart="1174.00">
        <route edges="2si 4o"/>
    </vehicle>
    <vehicle id="176" depart="1176.00">
        <route edges="4si 1o"/>
    </vehicle>
    <vehicle id="179" depart="1179.00">
        <route edges="-E5 -E4 -E1 2fi 2si 4o"/>
    </vehicle>
    <vehicle id="181" depart="1181.00">
        <route edges="1si 4o"/>
    </vehicle>
    <vehicle id="182" depart="1182.00">
        <route edges="-E7 -E2 E3"/>
    </vehicle>
    <vehicle id="183" depart="1183.00">
        <route edges="-E6 -E3 E4 E5"/>
    </vehicle>
    <vehicle id="185" depart="1185.00">
        <route edges="1fi 1si 2o E1 E4 E5"/>
    </vehicle>
    <vehicle id="186" depart="1186.00">
        <route edges="3fi 3si 2o E1 E4 E5"/>
    </vehicle>
    <vehicle id="187" depart="1187.00">
        <route edges="-E7 -E2 -E1 2fi 2si 1o"/>
    </vehicle>
    <vehicle id="191" depart="1191.00">
        <route edges="-E6 -E3 -E1 2fi 2si 4o"/>
    </vehicle>
    <vehicle id="192" depart="1192.00">
        <route edges="-E7 -E2 -E1 2fi 2si 3o"/>
    </vehicle>
    <vehicle id="193" depart="1193.00">
        <route edges="-E5 -E4 -E1 2fi 2si 4o"/>
    </vehicle>
    <vehicle id="194" depart="1194.00">
        <route edges="4si 2o E1 E4 E5"/>
    </vehicle>
    <vehicle id="195" depart="1195.00">
        <route edges="4fi 4si 2o E1 E4 E5"/>
    </vehicle>
    <vehicle id="197" depart="1197.00">
        <route edges="-E1 2fi 2si 3o"/>
    </vehicle>
    <vehicle id="198" depart="1198.00">
        <route edges="-E7 -E2 E3"/>
    </vehicle>
    <vehicle id="199" depart="1199.00">
        <route edges="3fi 3si 4o"/>
    </vehicle>
    <vehicle id="200" depart="1200.00">
        <route edges="-E7 -E2 -E1 2fi"/>
    </vehicle>
    <vehicle id="201" depart="1201.00">
        <route edges="1fi 1si 2o E1 E2 E7"/>
    </vehicle>
    <vehicle id="202" depart="1202.00">
        <route edges="3si 1o"/>
    </vehicle>
    <vehicle id="203" depart="1203.00">
        <route edges="-E5 -E4 -E1 2fi 2si 4o"/>
    </vehicle>
    <vehicle id="205" depart="1205.00">
        <route edges="4fi 4si 2o E1 E3 E6"/>
    </vehicle>
    <vehicle id="206" depart="1206.00">
        <route edges="3fi 3si 2o"/>
    </vehicle>
    <vehicle id="208" depart="1208.00">
        <route edges="-E6 -E3 -E1 2fi 2si 4o"/>
    </vehicle>
    <vehicle id="209" depart="1209.00">
        <route edges="4fi 4si 1o"/>
    </vehicle>
    <vehicle id="210" depart="1210.00">
        <route edges="-E7 -E2 E4 E5"/>
    </vehicle>
    <vehicle id="211" depart="1211.00">
        <route edges="-E6 -E3 E4 E5"/>
    </vehicle>
    <vehicle id="212" depart="1212.00">
        <route edges="1fi 1si 3o"/>
    </vehicle>
    <vehicle id="214" depart="1214.00">
        <route edges="3fi 3si 2o E1 E3 E6"/>
    </vehicle>
    <vehicle id="215" depart="1215.00">
        <route edges="-E5 -E4 -E1 2fi 2si 4o"/>
    </vehicle>
    <vehicle id="216" depart="1216.00">
        <route edges="-E5 -E4 E2 E7"/>
    </vehicle>
    <vehicle id="219" depart="1219.00">
        <route edges="-E7 -E2 E3 E6"/>
    </vehicle>
    <vehicle id="220" depart="1220.00">
        <route edges="3fi 3si 2o E1 E2 E7"/>
    </vehicle>
    <vehicle id="221" depart="1221.00">
        <route edges="1si 2o E1 E2 E7"/>
    </vehicle>
    <vehicle id="222" depart="1222.00">
        <route edges="4fi 4si 2o E1 E4 E5"/>
    </vehicle>
    <vehicle id="223" depart="1223.00">
        <route edges="3fi 3si 4o"/>
    </vehicle>
    <vehicle id="224" depart="1224.00">
        <route edges="4fi 4si 2o E1"/>
    </vehicle>
    <vehicle id="225" depart="1225.00">
        <route edges="4fi 4si 2o E1 E3 E6"/>
    </vehicle>
    <vehicle id="226" depart="1226.00">
        <route edges="1fi 1si 3o"/>
    </vehicle>
    <vehicle id="227" depart="1227.00">
        <route edges="-E6 -E3 E4 E5"/>
    </vehicle>
    <vehicle id="228" depart="1228.00">
        <route edges="3fi 3si 4o"/>
    </vehicle>
    <vehicle id="230" depart="1230.00">
        <route edges="-E5 -E4 -E1 2fi 2si 3o"/>
    </vehicle>
    <vehicle id="231" depart="1231.00">
        <route edges="-E6 -E3 -E1 2fi 2si 3o"/>
    </vehicle>
    <vehicle id="233" depart="1233.00">
        <route edges="-E6 -E3 E4 E5"/>
    </vehicle>
    <vehicle id="234" depart="1234.00">
        <route edges="3fi 3si 1o"/>
    </vehicle>
    <vehicle id="236" depart="1236.00">
        <route edges="-E7 -E2 -E1 2fi"/>
    </vehicle>
    <vehicle id="238" depart="1238.00">
        <route edges="1fi 1si 2o E1 E4 E5"/>
    </vehicle>
    <vehicle id="239" depart="1239.00">
        <route edges="4fi 4si 2o E1 E3 E6"/>
    </vehicle>
    <vehicle id="240" depart="1240.00">
        <route edges="-E7 -E2 -E1"/>
    </vehicle>
    <vehicle id="241" depart="1241.00">
        <route edges="-E7 -E2 E3 E6"/>
    </vehicle>
    <vehicle id="242" depart="1242.00">
        <route edges="4fi 4si 2o E1 E2 E7"/>
    </vehicle>
    <vehicle id="243" depart="1243.00">
        <route edges="-E7 -E2 E3 E6"/>
    </vehicle>
    <vehicle id="244" depart="1244.00">
        <route edges="1fi 1si 2o E1 E4 E5"/>
    </vehicle>
    <vehicle id="247" depart="1247.00">
        <route edges="-E7 -E2 E4 E5"/>
    </vehicle>
    <vehicle id="248" depart="1248.00">
        <route edges="-E7 -E2 -E1 2fi 2si 1o"/>
    </vehicle>
    <vehicle id="252" depart="1252.00">
        <route edges="-E3 E4 E5"/>
    </vehicle>
    <vehicle id="253" depart="1253.00">
        <route edges="-E5 -E4 -E1 2fi 2si 4o"/>
    </vehicle>
    <vehicle id="255" depart="1255.00">
        <route edges="-E6 -E3 -E1 2fi 2si 3o"/>
    </vehicle>
    <vehicle id="256" depart="1256.00">
        <route edges="3fi 3si"/>
    </vehicle>
    <vehicle id="257" depart="1257.00">
        <route edges="3fi 3si 2o E1 E3 E6"/>
    </vehicle>
    <vehicle id="258" depart="1258.00">
        <route edges="-E6 -E3 -E1 2fi 2si 1o"/>
    </vehicle>
    <vehicle id="261" depart="1261.00">
        <route edges="3fi 3si 2o E1 E3 E6"/>
    </vehicle>
    <vehicle id="262" depart="1262.00">
        <route edges="3fi 3si 2o E1 E3 E6"/>
    </vehicle>
    <vehicle id="264" depart="1264.00">
        <route edges="-E2 -E1 2fi 2si 1o"/>
    </vehicle>
    <vehicle id="266" depart="1266.00">
        <route edges="1fi 1si 2o"/>
    </vehicle>
    <vehicle id="267" depart="1267.00">
        <route edges="3fi 3si 2o E1 E3 E6"/>
    </vehicle>
    <vehicle id="269" depart="1269.00">
        <route edges="3fi 3si 1o"/>
    </vehicle>
    <vehicle id="270" depart="1270.00">
        <route edges="4fi 4si 2o E1 E2 E7"/>
    </vehicle>
    <vehicle id="272" depart="1272.00">
        <route edges="-E6 -E3 E4 E5"/>
    </vehicle>
    <vehicle id="274" depart="1274.00">
        <route edges="3fi 3si 1o"/>
    </vehicle>
    <vehicle id="275" depart="1275.00">
        <route edges="3fi 3si 2o E1 E4 E5"/>
    </vehicle>
    <vehicle id="276" depart="1276.00">
        <route edges="-E5 -E4 E3 E6"/>
    </vehicle>
    <vehicle id="277" depart="1277.00">
        <route edges="4fi 4si 2o E1 E4 E5"/>
    </vehicle>
    <vehicle id="278" depart="1278.00">
        <route edges="-E5 -E4 E2 E7"/>
    </vehicle>
    <vehicle id="280" depart="1280.00">
        <route edges="-E7 -E2 -E1 2fi 2si 3o"/>
    </vehicle>
    <vehicle id="281" depart="1281.00">
        <route edges="1fi 1si 3o"/>
    </vehicle>
    <vehicle id="282" depart="1282.00">
        <route edges="4fi 4si 2o E1 E3 E6"/>
    </vehicle>
    <vehicle id="283" depart="1283.00">
        <route edges="-E5 -E4 E2 E7"/>
    </vehicle>
    <vehicle id="285" depart="1285.00">
        <route edges="3fi 3si 4o"/>
    </vehicle>
    <vehicle id="286" depart="1286.00">
        <route edges="3fi 3si 2o E1 E2 E7"/>
    </vehicle>
    <vehicle id="288" depart="1288.00">
        <route edges="1fi 1si 4o"/>
    </vehicle>
    <vehicle id="289" depart="1289.00">
        <route edges="-E7 -E2 E3 E6"/>
    </vehicle>
    <vehicle id="291" depart="1291.00">
        <route edges="4fi 4si 1o"/>
    </vehicle>
    <vehicle id="292" depart="1292.00">
        <route edges="4fi 4si 3o"/>
    </vehicle>
    <vehicle id="293" depart="1293.00">
        <route edges="1fi 1si 2o E1 E4 E5"/>
    </vehicle>
    <vehicle id="295" depart="1295.00">
        <route edges="4fi 4si 1o"/>
    </vehicle>
    <vehicle id="301" depart="1301.00">
        <route edges="1fi 1si 2o E1 E3 E6"/>
    </vehicle>
    <vehicle id="302" depart="1302.00">
        <route edges="3fi 3si 2o E1 E4 E5"/>
    </vehicle>
    <vehicle id="303" depart="1303.00">
        <route edges="1fi 1si 2o E1 E3 E6"/>
    </vehicle>
    <vehicle id="306" depart="1306.00">
        <route edges="1fi 1si 4o"/>
    </vehicle>
    <vehicle id="307" depart="1307.00">
        <route edges="1fi 1si 4o"/>
    </vehicle>
    <vehicle id="310" depart="1310.00">
        <route edges="-E6 -E3 -E1 2fi 2si 1o"/>
    </vehicle>
    <vehicle id="311" depart="1311.00">
        <route edges="-E6 -E3 -E1 2fi 2si 1o"/>
    </vehicle>
    <vehicle id="312" depart="1312.00">
        <route edges="1fi 1si 2o E1 E3 E6"/>
    </vehicle>
    <vehicle id="314" depart="1314.00">
        <route edges="1fi 1si 2o E1 E4 E5"/>
    </vehicle>
    <vehicle id="316" depart="1316.00">
        <route edges="-E6 -E3 -E1 2fi 2si 1o"/>
    </vehicle>
    <vehicle id="319" depart="1319.00">
        <route edges="1fi 1si 3o"/>
    </vehicle>
    <vehicle id="321" depart="1321.00">
        <route edges="3fi 3si 1o"/>
    </vehicle>
    <vehicle id="323" depart="1323.00">
        <route edges="4fi 4si 2o E1 E3"/>
    </vehicle>
    <vehicle id="324" depart="1324.00">
        <route edges="1fi 1si 4o"/>
    </vehicle>
    <vehicle id="325" depart="1325.00">
        <route edges="-E5 -E4"/>
    </vehicle>
    <vehicle id="329" depart="1329.00">
        <route edges="-E4 -E1 2fi 2si 1o"/>
    </vehicle>
    <vehicle id="330" depart="1330.00">
        <route edges="1fi 1si 3o"/>
    </vehicle>
    <vehicle id="332" depart="1332.00">
        <route edges="3fi 3si 2o E1 E4 E5"/>
    </vehicle>
    <vehicle id="333" depart="1333.00">
        <route edges="3si 2o"/>
    </vehicle>
    <vehicle id="334" depart="1334.00">
        <route edges="1fi 1si 4o"/>
    </vehicle>
    <vehicle id="335" depart="1335.00">
        <route edges="-E7 -E2 E3 E6"/>
    </vehicle>
    <vehicle id="338" depart="1338.00">
        <route edges="3fi 3si 2o E1 E2 E7"/>
    </vehicle>
    <vehicle id="339" depart="1339.00">
        <route edges="-E6 -E3 -E1 2fi"/>
    </vehicle>
    <vehicle id="340" depart="1340.00">
        <route edges="3fi 3si 1o"/>
    </vehicle>
    <vehicle id="341" depart="1341.00">
        <route edges="-E5 -E4 -E1 2fi 2si 1o"/>
    </vehicle>
    <vehicle id="342" depart="1342.00">
        <route edges="-E1 2fi 2si 4o"/>
    </vehicle>
    <vehicle id="343" depart="1343.00">
        <route edges="1fi 1si 3o"/>
    </vehicle>
    <vehicle id="344" depart="1344.00">
        <route edges="-E6 -E3 E4 E5"/>
    </vehicle>
    <vehicle id="345" depart="1345.00">
        <route edges="3fi 3si 4o"/>
    </vehicle>
    <vehicle id="346" depart="1346.00">
        <route edges="3fi 3si 2o E1 E2 E7"/>
    </vehicle>
    <vehicle id="347" depart="1347.00">
        <route edges="3si 2o E1 E4 E5"/>
    </vehicle>
    <vehicle id="348" depart="1348.00">
        <route edges="3fi 3si 2o E1 E2 E7"/>
    </vehicle>
    <vehicle id="351" depart="1351.00">
        <route edges="4fi 4si 1o"/>
    </vehicle>
    <vehicle id="352" depart="1352.00">
        <route edges="-E5 -E4 -E1 2fi 2si 3o"/>
    </vehicle>
    <vehicle id="353" depart="1353.00">
        <route edges="3fi 3si 2o E1 E3"/>
    </vehicle>
    <vehicle id="354" depart="1354.00">
        <route edges="-E6 -E3 -E1 2fi 2si 1o"/>
    </vehicle>
    <vehicle id="355" depart="1355.00">
        <route edges="3fi 3si 2o E1 E4 E5"/>
    </vehicle>
    <vehicle id="358" depart="1358.00">
        <route edges="-E3 -E1 2fi 2si 4o"/>
    </vehicle>
    <vehicle id="359" depart="1359.00">
        <route edges="-E6 -E3 -E1 2fi 2si 3o"/>
    </vehicle>
    <vehicle id="360" depart="1360.00">
        <route edges="-E5 -E4 E2 E7"/>
    </vehicle>
    <vehicle id="361" depart="1361.00">
        <route edges="4fi 4si 2o E1 E3"/>
    </vehicle>
    <vehicle id="362" depart="1362.00">
        <route edges="E1 E2 E7"/>
    </vehicle>
    <vehicle id="365" depart="1365.00">
        <route edges="1fi 1si 2o E1 E4 E5"/>
    </vehicle>
    <vehicle id="366" depart="1366.00">
        <route edges="4fi 4si 1o"/>
    </vehicle>
    <vehicle id="367" depart="1367.00">
        <route edges="1fi 1si 2o E1 E4 E5"/>
    </vehicle>
    <vehicle id="369" depart="1369.00">
        <route edges="-E7 -E2 -E1 2fi 2si 3o"/>
    </vehicle>
    <vehicle id="370" depart="1370.00">
        <route edges="3fi 3si 2o E1 E3 E6"/>
    </vehicle>
    <vehicle id="371" depart="1371.00">
        <route edges="-E7 -E2 E4 E5"/>
    </vehicle>
    <vehicle id="372" depart="1372.00">
        <route edges="-E6 -E3 E2 E7"/>
    </vehicle>
    <vehicle id="373" depart="1373.00">
        <route edges="4fi 4si 2o E1"/>
    </vehicle>
    <vehicle id="374" depart="1374.00">
        <route edges="-E7 -E2 -E1 2fi 2si 3o"/>
    </vehicle>
    <vehicle id="375" depart="1375.00">
        <route edges="-E6 -E3 E2 E7"/>
    </vehicle>
    <vehicle id="376" depart="1376.00">
        <route edges="-E7 -E2 -E1 2fi 2si 4o"/>
    </vehicle>
    <vehicle id="377" depart="1377.00">
        <route edges="E4 E5"/>
    </vehicle>
    <vehicle id="378" depart="1378.00">
        <route edges="1fi 1si 4o"/>
    </vehicle>
    <vehicle id="379" depart="1379.00">
        <route edges="-E5 -E4 -E1 2fi 2si 3o"/>
    </vehicle>
    <vehicle id="380" depart="1380.00">
        <route edges="3fi 3si 2o E1 E4 E5"/>
    </vehicle>
    <vehicle id="382" depart="1382.00">
        <route edges="1fi 1si 2o E1 E2 E7"/>
    </vehicle>
    <vehicle id="383" depart="1383.00">
        <route edges="-E7 -E2 E4 E5"/>
    </vehicle>
    <vehicle id="384" depart="1384.00">
        <route edges="-E5 -E4 E2 E7"/>
    </vehicle>
    <vehicle id="385" depart="1385.00">
        <route edges="2fi 2si"/>
    </vehicle>
    <vehicle id="391" depart="1391.00">
        <route edges="3fi 3si 4o"/>
    </vehicle>
    <vehicle id="396" depart="1396.00">
        <route edges="4fi 4si 2o E1 E3 E6"/>
    </vehicle>
    <vehicle id="399" depart="1399.00">
        <route edges="1fi 1si 2o E1 E3 E6"/>
    </vehicle>
    <vehicle id="400" depart="1400.00">
        <route edges="-E6 -E3 -E1 2fi 2si 3o"/>
    </vehicle>
    <vehicle id="401" depart="1401.00">
        <route edges="1fi 1si 2o E1 E2 E7"/>
    </vehicle>
    <vehicle id="403" depart="1403.00">
        <route edges="1fi 1si 3o"/>
    </vehicle>
    <vehicle id="404" depart="1404.00">
        <route edges="1fi 1si 2o E1"/>
    </vehicle>
    <vehicle id="405" depart="1405.00">
        <route edges="-E7 -E2 -E1 2fi 2si 3o"/>
    </vehicle>
    <vehicle id="409" depart="1409.00">
        <route edges="3fi 3si 2o E1 E4 E5"/>
    </vehicle>
    <vehicle id="411" depart="1411.00">
        <route edges="3fi 3si 2o E1 E3 E6"/>
    </vehicle>
    <vehicle id="413" depart="1413.00">
        <route edges="-E3 -E1 2fi 2si 4o"/>
    </vehicle>
    <vehicle id="414" depart="1414.00">
        <route edges="1fi 1si 2o E1 E2 E7"/>
    </vehicle>
    <vehicle id="416" depart="1416.00">
        <route edges="1fi 1si 4o"/>
    </vehicle>
    <vehicle id="417" depart="1417.00">
        <route edges="3fi 3si 4o"/>
    </vehicle>
    <vehicle id="418" depart="1418.00">
        <route edges="3fi 3si 1o"/>
    </vehicle>
    <vehicle id="419" depart="1419.00">
        <route edges="1fi 1si 2o E1 E2 E7"/>
    </vehicle>
    <vehicle id="420" depart="1420.00">
        <route edges="-E7 -E2 E4 E5"/>
    </vehicle>
    <vehicle id="421" depart="1421.00">
        <route edges="3fi 3si 2o E1 E3 E6"/>
    </vehicle>
    <vehicle id="422" depart="1422.00">
        <route edges="4fi 4si 2o E1 E3 E6"/>
    </vehicle>
    <vehicle id="423" depart="1423.00">
        <route edges="-E7 -E2 -E1 2fi 2si 3o"/>
    </vehicle>
    <vehicle id="424" depart="1424.00">
        <route edges="3fi 3si 2o E1 E3 E6"/>
    </vehicle>
    <vehicle id="427" depart="1427.00">
        <route edges="4fi 4si 2o E1 E2 E7"/>
    </vehicle>
    <vehicle id="428" depart="1428.00">
        <route edges="3fi 3si 4o"/>
    </vehicle>
    <vehicle id="431" depart="1431.00">
        <route edges="3fi 3si 2o E1 E2 E7"/>
    </vehicle>
    <vehicle id="432" depart="1432.00">
        <route edges="-E4 E3 E6"/>
    </vehicle>
    <vehicle id="433" depart="1433.00">
        <route edges="-E6 -E3 -E1 2fi 2si 3o"/>
    </vehicle>
    <vehicle id="435" depart="1435.00">
        <route edges="1fi 1si 2o E1 E3 E6"/>
    </vehicle>
    <vehicle id="436" depart="1436.00">
        <route edges="-E5 -E4 -E1 2fi 2si 1o"/>
    </vehicle>
    <vehicle id="437" depart="1437.00">
        <route edges="4fi 4si 2o E1 E4 E5"/>
    </vehicle>
    <vehicle id="438" depart="1438.00">
        <route edges="-E6 -E3 E2 E7"/>
    </vehicle>