<?xml version="1.0" encoding="UTF-8"?>

<!-- generated on 2025-06-12 00:05:47.396578 by randomTrips.py v1_21_0+0000-d7b3b481c43
<configuration>
    <net-file value="networks/2_identical_intersections/net.net.xml"/>
    <output-trip-file value="networks/2_identical_intersections/trips.trips.xml"/>
    <route-file value="networks/2_identical_intersections/routes.rou.xml"/>
    <fringe-factor value="10"/>
    <begin value="1000.0"/>
    <period value="0.75"/>
</configuration>
-->

<!-- generated on 2025-06-12 00:05:47 by Eclipse SUMO duarouter Version 1.21.0
<duarouterConfiguration xmlns:xsi="http://www.w3.org/2001/XMLSchema-instance" xsi:noNamespaceSchemaLocation="http://sumo.dlr.de/xsd/duarouterConfiguration.xsd">

    <input>
        <net-file value="networks/2_identical_intersections/net.net.xml"/>
        <route-files value="networks/2_identical_intersections/trips.trips.xml"/>
    </input>

    <output>
        <output-file value="networks/2_identical_intersections/routes.rou.xml"/>
        <alternatives-output value="NUL"/>
    </output>

    <time>
        <begin value="1000.0"/>
        <end value="3600"/>
    </time>

    <report>
        <no-warnings value="true"/>
        <ignore-errors value="true"/>
        <no-step-log value="true"/>
    </report>

</duarouterConfiguration>
-->

<routes xmlns:xsi="http://www.w3.org/2001/XMLSchema-instance" xsi:noNamespaceSchemaLocation="http://sumo.dlr.de/xsd/routes_file.xsd">
    <vehicle id="2" depart="1001.50">
        <route edges="3fi 3si 2o E1 E4 E5"/>
    </vehicle>
    <vehicle id="3" depart="1002.25">
        <route edges="4fi 4si 1o"/>
    </vehicle>
    <vehicle id="5" depart="1003.75">
        <route edges="-E6 -E3 -E1 2fi 2si 4o"/>
    </vehicle>
    <vehicle id="7" depart="1005.25">
        <route edges="3fi 3si 2o E1"/>
    </vehicle>
    <vehicle id="8" depart="1006.00">
        <route edges="-E6 -E3 E4"/>
    </vehicle>
    <vehicle id="10" depart="1007.50">
        <route edges="4fi 4si 2o E1 E4 E5"/>
    </vehicle>
    <vehicle id="11" depart="1008.25">
        <route edges="-E7 -E2 -E1 2fi 2si 1o"/>
    </vehicle>
    <vehicle id="13" depart="1009.75">
        <route edges="-E5 -E4 -E1 2fi 2si 1o"/>
    </vehicle>
    <vehicle id="14" depart="1010.50">
        <route edges="4fi 4si 2o E1 E4 E5"/>
    </vehicle>
    <vehicle id="15" depart="1011.25">
        <route edges="4fi 4si 2o E1 E3 E6"/>
    </vehicle>
    <vehicle id="16" depart="1012.00">
        <route edges="1fi 1si 2o E1 E2 E7"/>
    </vehicle>
    <vehicle id="18" depart="1013.50">
        <route edges="4fi 4si 2o E1 E4 E5"/>
    </vehicle>
    <vehicle id="19" depart="1014.25">
        <route edges="4fi 4si 2o E1 E3"/>
    </vehicle>
    <vehicle id="21" depart="1015.75">
        <route edges="-E6 -E3 -E1 2fi 2si 3o"/>
    </vehicle>
    <vehicle id="22" depart="1016.50">
        <route edges="-E5 -E4 -E1 2fi 2si"/>
    </vehicle>
    <vehicle id="23" depart="1017.25">
        <route edges="-E5 -E4 -E1 2fi 2si 3o"/>
    </vehicle>
    <vehicle id="24" depart="1018.00">
        <route edges="2si 3o"/>
    </vehicle>
    <vehicle id="25" depart="1018.75">
        <route edges="-E7 -E2 -E1 2fi"/>
    </vehicle>
    <vehicle id="26" depart="1019.50">
        <route edges="-E6 -E3 E2 E7"/>
    </vehicle>
    <vehicle id="30" depart="1022.50">
        <route edges="E4 E5"/>
    </vehicle>
    <vehicle id="31" depart="1023.25">
        <route edges="1fi 1si 2o E1 E4 E5"/>
    </vehicle>
    <vehicle id="32" depart="1024.00">
        <route edges="4fi 4si 2o E1 E3 E6"/>
    </vehicle>
    <vehicle id="33" depart="1024.75">
        <route edges="-E6 -E3"/>
    </vehicle>
    <vehicle id="34" depart="1025.50">
        <route edges="-E6 -E3 -E1 2fi 2si 3o"/>
    </vehicle>
    <vehicle id="35" depart="1026.25">
        <route edges="-E6 -E3 E2 E7"/>
    </vehicle>
    <vehicle id="36" depart="1027.00">
        <route edges="4fi 4si 3o"/>
    </vehicle>
    <vehicle id="37" depart="1027.75">
        <route edges="3fi 3si 4o"/>
    </vehicle>
    <vehicle id="39" depart="1029.25">
        <route edges="-E6 -E3 -E1 2fi 2si 3o"/>
    </vehicle>
    <vehicle id="40" depart="1030.00">
        <route edges="1fi 1si 3o"/>
    </vehicle>
    <vehicle id="41" depart="1030.75">
        <route edges="1fi 1si 2o E1 E2 E7"/>
    </vehicle>
    <vehicle id="44" depart="1033.00">
        <route edges="-E5 -E4"/>
    </vehicle>
    <vehicle id="46" depart="1034.50">
        <route edges="3si 4o"/>
    </vehicle>
    <vehicle id="52" depart="1039.00">
        <route edges="-E6 -E3 E4 E5"/>
    </vehicle>
    <vehicle id="53" depart="1039.75">
        <route edges="-E5 -E4 -E1 2fi 2si 4o"/>
    </vehicle>
    <vehicle id="55" depart="1041.25">
        <route edges="4fi 4si 3o"/>
    </vehicle>
    <vehicle id="57" depart="1042.75">
        <route edges="4fi 4si 2o E1 E2 E7"/>
    </vehicle>
    <vehicle id="58" depart="1043.50">
        <route edges="-E6 -E3 E4 E5"/>
    </vehicle>
    <vehicle id="59" depart="1044.25">
        <route edges="2fi 2si 1o"/>
    </vehicle>
    <vehicle id="62" depart="1046.50">
        <route edges="-E1 2fi 2si 3o"/>
    </vehicle>
    <vehicle id="64" depart="1048.00">
        <route edges="4fi 4si 2o E1 E3 E6"/>
    </vehicle>
    <vehicle id="65" depart="1048.75">
        <route edges="-E6 -E3 -E1 2fi 2si 1o"/>
    </vehicle>
    <vehicle id="66" depart="1049.50">
        <route edges="4fi 4si 2o E1 E2 E7"/>
    </vehicle>
    <vehicle id="67" depart="1050.25">
        <route edges="-E5 -E4 -E1 2fi 2si 4o"/>
    </vehicle>
    <vehicle id="68" depart="1051.00">
        <route edges="-E5 -E4 E3 E6"/>
    </vehicle>
    <vehicle id="69" depart="1051.75">
        <route edges="3fi 3si 1o"/>
    </vehicle>
    <vehicle id="70" depart="1052.50">
        <route edges="1fi 1si 2o E1"/>
    </vehicle>
    <vehicle id="71" depart="1053.25">
        <route edges="-E6 -E3 E2 E7"/>
    </vehicle>
    <vehicle id="72" depart="1054.00">
        <route edges="-E7 -E2 -E1 2fi"/>
    </vehicle>
    <vehicle id="73" depart="1054.75">
        <route edges="1fi 1si 2o E1 E3 E6"/>
    </vehicle>
    <vehicle id="74" depart="1055.50">
        <route edges="-E6 -E3 -E1 2fi 2si 3o"/>
    </vehicle>
    <vehicle id="75" depart="1056.25">
        <route edges="E4 E5"/>
    </vehicle>
    <vehicle id="76" depart="1057.00">
        <route edges="-E7 -E2 -E1 2fi 2si 4o"/>
    </vehicle>
    <vehicle id="78" depart="1058.50">
        <route edges="-E7 -E2 E4"/>
    </vehicle>
    <vehicle id="81" depart="1060.75">
        <route edges="-E6 -E3 E2 E7"/>
    </vehicle>
    <vehicle id="82" depart="1061.50">
        <route edges="4fi 4si 1o"/>
    </vehicle>
    <vehicle id="83" depart="1062.25">
        <route edges="-E6 -E3 E4 E5"/>
    </vehicle>
    <vehicle id="84" depart="1063.00">
        <route edges="-E6 -E3 -E1 2fi 2si 1o"/>
    </vehicle>
    <vehicle id="85" depart="1063.75">
        <route edges="4si 2o E1 E3"/>
    </vehicle>
    <vehicle id="86" depart="1064.50">
        <route edges="1fi 1si 2o E1 E3 E6"/>
    </vehicle>
    <vehicle id="88" depart="1066.00">
        <route edges="-E5 -E4 -E1 2fi 2si 4o"/>
    </vehicle>
    <vehicle id="89" depart="1066.75">
        <route edges="-E7 -E2 -E1 2fi 2si 4o"/>
    </vehicle>
    <vehicle id="90" depart="1067.50">
        <route edges="3fi 3si 2o E1 E4 E5"/>
    </vehicle>
    <vehicle id="92" depart="1069.00">
        <route edges="-E7 -E2 -E1 2fi 2si 3o"/>
    </vehicle>
    <vehicle id="93" depart="1069.75">
        <route edges="4fi 4si 3o"/>
    </vehicle>
    <vehicle id="94" depart="1070.50">
        <route edges="-E6 -E3 -E1 2fi 2si 4o"/>
    </vehicle>
    <vehicle id="95" depart="1071.25">
        <route edges="-E7 -E2 -E1 2fi 2si 3o"/>
    </vehicle>
    <vehicle id="96" depart="1072.00">
        <route edges="-E6 -E3 E2 E7"/>
    </vehicle>
    <vehicle id="97" depart="1072.75">
        <route edges="-E7 -E2 E3 E6"/>
    </vehicle>
    <vehicle id="100" depart="1075.00">
        <route edges="E2 E7"/>
    </vehicle>
    <vehicle id="101" depart="1075.75">
        <route edges="4fi 4si 1o"/>
    </vehicle>
    <vehicle id="103" depart="1077.25">
        <route edges="-E7 -E2 -E1 2fi 2si 1o"/>
    </vehicle>
    <vehicle id="106" depart="1079.50">
        <route edges="-E7 -E2 -E1 2fi 2si 4o"/>
    </vehicle>
    <vehicle id="107" depart="1080.25">
        <route edges="E1 E2 E7"/>
    </vehicle>
    <vehicle id="108" depart="1081.00">
        <route edges="1fi 1si 2o E1 E4 E5"/>
    </vehicle>
    <vehicle id="109" depart="1081.75">
        <route edges="-E5 -E4 -E1 2fi 2si 3o"/>
    </vehicle>
    <vehicle id="111" depart="1083.25">
        <route edges="1fi 1si 2o E1 E3 E6"/>
    </vehicle>
    <vehicle id="113" depart="1084.75">
        <route edges="1fi 1si 2o E1 E3 E6"/>
    </vehicle>
    <vehicle id="114" depart="1085.50">
        <route edges="-E5 -E4 E2 E7"/>
    </vehicle>
    <vehicle id="115" depart="1086.25">
        <route edges="-E5 -E4 -E1 2fi 2si 1o"/>
    </vehicle>
    <vehicle id="116" depart="1087.00">
        <route edges="1si 2o E1 E4 E5"/>
    </vehicle>
    <vehicle id="117" depart="1087.75">
        <route edges="-E6 -E3 -E1 2fi 2si 1o"/>
    </vehicle>
    <vehicle id="118" depart="1088.50">
        <route edges="4fi 4si 3o"/>
    </vehicle>
    <vehicle id="119" depart="1089.25">
        <route edges="1fi 1si 2o E1 E4 E5"/>
    </vehicle>
    <vehicle id="120" depart="1090.00">
        <route edges="-E7 -E2 E4"/>
    </vehicle>
    <vehicle id="121" depart="1090.75">
        <route edges="1fi 1si 2o E1 E2 E7"/>
    </vehicle>
    <vehicle id="122" depart="1091.50">
        <route edges="-E6 -E3 E4 E5"/>
    </vehicle>
    <vehicle id="123" depart="1092.25">
        <route edges="-E6 -E3 -E1 2fi 2si 4o"/>
    </vehicle>
    <vehicle id="126" depart="1094.50">
        <route edges="-E5 -E4 -E1 2fi 2si 4o"/>
    </vehicle>
    <vehicle id="128" depart="1096.00">
        <route edges="-E5 -E4 -E1 2fi"/>
    </vehicle>
    <vehicle id="129" depart="1096.75">
        <route edges="-E6 -E3 E2 E7"/>
    </vehicle>
    <vehicle id="130" depart="1097.50">
        <route edges="4fi 4si 2o E1 E2 E7"/>
    </vehicle>
    <vehicle id="131" depart="1098.25">
        <route edges="-E7 -E2 -E1 2fi 2si 1o"/>
    </vehicle>
    <vehicle id="132" depart="1099.00">
        <route edges="4fi 4si 2o E1 E4 E5"/>
    </vehicle>
    <vehicle id="135" depart="1101.25">
        <route edges="4fi 4si 3o"/>
    </vehicle>
    <vehicle id="136" depart="1102.00">
        <route edges="3fi 3si 2o E1 E2 E7"/>
    </vehicle>
    <vehicle id="137" depart="1102.75">
        <route edges="-E5 -E4 -E1 2fi 2si 1o"/>
    </vehicle>
    <vehicle id="139" depart="1104.25">
        <route edges="-E6 -E3 E4 E5"/>
    </vehicle>
    <vehicle id="142" depart="1106.50">
        <route edges="1fi 1si 2o E1 E2 E7"/>
    </vehicle>
    <vehicle id="143" depart="1107.25">
        <route edges="4fi 4si 1o"/>
    </vehicle>
    <vehicle id="144" depart="1108.00">
        <route edges="-E7 -E2 -E1 2fi 2si 3o"/>
    </vehicle>
    <vehicle id="146" depart="1109.50">
        <route edges="2si 3o"/>
    </vehicle>
    <vehicle id="147" depart="1110.25">
        <route edges="3fi 3si 2o E1"/>
    </vehicle>
    <vehicle id="148" depart="1111.00">
        <route edges="-E7 -E2 -E1"/>
    </vehicle>
    <vehicle id="149" depart="1111.75">
        <route edges="-E5 -E4 E2 E7"/>
    </vehicle>
    <vehicle id="150" depart="1112.50">
        <route edges="4fi 4si 2o E1"/>
    </vehicle>
    <vehicle id="151" depart="1113.25">
        <route edges="4fi 4si 2o E1 E4"/>
    </vehicle>
    <vehicle id="152" depart="1114.00">
        <route edges="-E5 -E4 -E1 2fi 2si 1o"/>
    </vehicle>
    <vehicle id="153" depart="1114.75">
        <route edges="-E6 -E3 E2 E7"/>
    </vehicle>
    <vehicle id="154" depart="1115.50">
        <route edges="3si 2o E1 E3 E6"/>
    </vehicle>
    <vehicle id="156" depart="1117.00">
        <route edges="-E6 -E3 -E1 2fi 2si 1o"/>
    </vehicle>
    <vehicle id="157" depart="1117.75">
        <route edges="3fi 3si 2o E1 E2 E7"/>
    </vehicle>
    <vehicle id="158" depart="1118.50">
        <route edges="-E7 -E2 E4 E5"/>
    </vehicle>
    <vehicle id="159" depart="1119.25">
        <route edges="-E5 -E4 E2 E7"/>
    </vehicle>
    <vehicle id="160" depart="1120.00">
        <route edges="4fi 4si 2o E1 E2 E7"/>
    </vehicle>
    <vehicle id="161" depart="1120.75">
        <route edges="4fi 4si 2o E1 E2 E7"/>
    </vehicle>
    <vehicle id="162" depart="1121.50">
        <route edges="-E2 E3 E6"/>
    </vehicle>
    <vehicle id="164" depart="1123.00">
        <route edges="4fi 4si 2o E1 E3 E6"/>
    </vehicle>
    <vehicle id="165" depart="1123.75">
        <route edges="4fi 4si 3o"/>
    </vehicle>
    <vehicle id="166" depart="1124.50">
        <route edges="3si 1o"/>
    </vehicle>
    <vehicle id="167" depart="1125.25">
        <route edges="4fi 4si 2o E1 E3 E6"/>
    </vehicle>
    <vehicle id="169" depart="1126.75">
        <route edges="1fi 1si 3o"/>
    </vehicle>
    <vehicle id="170" depart="1127.50">
        <route edges="3si 2o"/>
    </vehicle>
    <vehicle id="172" depart="1129.00">
        <route edges="-E7 -E2 E3 E6"/>
    </vehicle>
    <vehicle id="174" depart="1130.50">
        <route edges="2si 4o"/>
    </vehicle>
    <vehicle id="176" depart="1132.00">
        <route edges="4si 1o"/>
    </vehicle>
    <vehicle id="179" depart="1134.25">
        <route edges="-E5 -E4 -E1 2fi 2si 4o"/>
    </vehicle>
    <vehicle id="181" depart="1135.75">
        <route edges="1si 4o"/>
    </vehicle>
    <vehicle id="182" depart="1136.50">
        <route edges="-E7 -E2 E3"/>
    </vehicle>
    <vehicle id="183" depart="1137.25">
        <route edges="-E6 -E3 E4 E5"/>
    </vehicle>
    <vehicle id="185" depart="1138.75">
        <route edges="1fi 1si 2o E1 E4 E5"/>
    </vehicle>
    <vehicle id="186" depart="1139.50">
        <route edges="3fi 3si 2o E1 E4 E5"/>
    </vehicle>
    <vehicle id="187" depart="1140.25">
        <route edges="-E7 -E2 -E1 2fi 2si 1o"/>
    </vehicle>
    <vehicle id="191" depart="1143.25">
        <route edges="-E6 -E3 -E1 2fi 2si 4o"/>
    </vehicle>
    <vehicle id="192" depart="1144.00">
        <route edges="-E7 -E2 -E1 2fi 2si 3o"/>
    </vehicle>
    <vehicle id="193" depart="1144.75">
        <route edges="-E5 -E4 -E1 2fi 2si 4o"/>
    </vehicle>
    <vehicle id="194" depart="1145.50">
        <route edges="4si 2o E1 E4 E5"/>
    </vehicle>
    <vehicle id="195" depart="1146.25">
        <route edges="4fi 4si 2o E1 E4 E5"/>
    </vehicle>
    <vehicle id="197" depart="1147.75">
        <route edges="-E1 2fi 2si 3o"/>
    </vehicle>
    <vehicle id="198" depart="1148.50">
        <route edges="-E7 -E2 E3"/>
    </vehicle>
    <vehicle id="199" depart="1149.25">
        <route edges="3fi 3si 4o"/>
    </vehicle>
    <vehicle id="200" depart="1150.00">
        <route edges="-E7 -E2 -E1 2fi"/>
    </vehicle>
    <vehicle id="201" depart="1150.75">
        <route edges="1fi 1si 2o E1 E2 E7"/>
    </vehicle>
    <vehicle id="202" depart="1151.50">
        <route edges="3si 1o"/>
    </vehicle>
    <vehicle id="203" depart="1152.25">
        <route edges="-E5 -E4 -E1 2fi 2si 4o"/>
    </vehicle>
    <vehicle id="205" depart="1153.75">
        <route edges="4fi 4si 2o E1 E3 E6"/>
    </vehicle>
    <vehicle id="206" depart="1154.50">
        <route edges="3fi 3si 2o"/>
    </vehicle>
    <vehicle id="208" depart="1156.00">
        <route edges="-E6 -E3 -E1 2fi 2si 4o"/>
    </vehicle>
    <vehicle id="209" depart="1156.75">
        <route edges="4fi 4si 1o"/>
    </vehicle>
    <vehicle id="210" depart="1157.50">
        <route edges="-E7 -E2 E4 E5"/>
    </vehicle>
    <vehicle id="211" depart="1158.25">
        <route edges="-E6 -E3 E4 E5"/>
    </vehicle>
    <vehicle id="212" depart="1159.00">
        <route edges="1fi 1si 3o"/>
    </vehicle>
    <vehicle id="214" depart="1160.50">
        <route edges="3fi 3si 2o E1 E3 E6"/>
    </vehicle>
    <vehicle id="215" depart="1161.25">
        <route edges="-E5 -E4 -E1 2fi 2si 4o"/>
    </vehicle>
    <vehicle id="216" depart="1162.00">
        <route edges="-E5 -E4 E2 E7"/>
    </vehicle>
    <vehicle id="219" depart="1164.25">
        <route edges="-E7 -E2 E3 E6"/>
    </vehicle>
    <vehicle id="220" depart="1165.00">
        <route edges="3fi 3si 2o E1 E2 E7"/>
    </vehicle>
    <vehicle id="221" depart="1165.75">
        <route edges="1si 2o E1 E2 E7"/>
    </vehicle>
    <vehicle id="222" depart="1166.50">
        <route edges="4fi 4si 2o E1 E4 E5"/>
    </vehicle>
    <vehicle id="223" depart="1167.25">
        <route edges="3fi 3si 4o"/>
    </vehicle>
    <vehicle id="224" depart="1168.00">
        <route edges="4fi 4si 2o E1"/>
    </vehicle>
    <vehicle id="225" depart="1168.75">
        <route edges="4fi 4si 2o E1 E3 E6"/>
    </vehicle>
    <vehicle id="226" depart="1169.50">
        <route edges="1fi 1si 3o"/>
    </vehicle>
    <vehicle id="227" depart="1170.25">
        <route edges="-E6 -E3 E4 E5"/>
    </vehicle>
    <vehicle id="228" depart="1171.00">
        <route edges="3fi 3si 4o"/>
    </vehicle>
    <vehicle id="230" depart="1172.50">
        <route edges="-E5 -E4 -E1 2fi 2si 3o"/>
    </vehicle>
    <vehicle id="231" depart="1173.25">
        <route edges="-E6 -E3 -E1 2fi 2si 3o"/>
    </vehicle>
    <vehicle id="233" depart="1174.75">
        <route edges="-E6 -E3 E4 E5"/>
    </vehicle>
    <vehicle id="234" depart="1175.50">
        <route edges="3fi 3si 1o"/>
    </vehicle>
    <vehicle id="236" depart="1177.00">
        <route edges="-E7 -E2 -E1 2fi"/>
    </vehicle>
    <vehicle id="238" depart="1178.50">
        <route edges="1fi 1si 2o E1 E4 E5"/>
    </vehicle>
    <vehicle id="239" depart="1179.25">
        <route edges="4fi 4si 2o E1 E3 E6"/>
    </vehicle>
    <vehicle id="240" depart="1180.00">
        <route edges="-E7 -E2 -E1"/>
    </vehicle>
    <vehicle id="241" depart="1180.75">
        <route edges="-E7 -E2 E3 E6"/>
    </vehicle>
    <vehicle id="242" depart="1181.50">
        <route edges="4fi 4si 2o E1 E2 E7"/>
    </vehicle>
    <vehicle id="243" depart="1182.25">
        <route edges="-E7 -E2 E3 E6"/>
    </vehicle>
    <vehicle id="244" depart="1183.00">
        <route edges="1fi 1si 2o E1 E4 E5"/>
    </vehicle>
    <vehicle id="247" depart="1185.25">
        <route edges="-E7 -E2 E4 E5"/>
    </vehicle>
    <vehicle id="248" depart="1186.00">
        <route edges="-E7 -E2 -E1 2fi 2si 1o"/>
    </vehicle>
    <vehicle id="252" depart="1189.00">
        <route edges="-E3 E4 E5"/>
    </vehicle>
    <vehicle id="253" depart="1189.75">
        <route edges="-E5 -E4 -E1 2fi 2si 4o"/>
    </vehicle>
    <vehicle id="255" depart="1191.25">
        <route edges="-E6 -E3 -E1 2fi 2si 3o"/>
    </vehicle>
    <vehicle id="256" depart="1192.00">
        <route edges="3fi 3si"/>
    </vehicle>
    <vehicle id="257" depart="1192.75">
        <route edges="3fi 3si 2o E1 E3 E6"/>
    </vehicle>
    <vehicle id="258" depart="1193.50">
        <route edges="-E6 -E3 -E1 2fi 2si 1o"/>
    </vehicle>
    <vehicle id="261" depart="1195.75">
        <route edges="3fi 3si 2o E1 E3 E6"/>
    </vehicle>
    <vehicle id="262" depart="1196.50">
        <route edges="3fi 3si 2o E1 E3 E6"/>
    </vehicle>
    <vehicle id="264" depart="1198.00">
        <route edges="-E2 -E1 2fi 2si 1o"/>
    </vehicle>
    <vehicle id="266" depart="1199.50">
        <route edges="1fi 1si 2o"/>
    </vehicle>
    <vehicle id="267" depart="1200.25">
        <route edges="3fi 3si 2o E1 E3 E6"/>
    </vehicle>
    <vehicle id="269" depart="1201.75">
        <route edges="3fi 3si 1o"/>
    </vehicle>
    <vehicle id="270" depart="1202.50">
        <route edges="4fi 4si 2o E1 E2 E7"/>
    </vehicle>
    <vehicle id="272" depart="1204.00">
        <route edges="-E6 -E3 E4 E5"/>
    </vehicle>
    <vehicle id="274" depart="1205.50">
        <route edges="3fi 3si 1o"/>
    </vehicle>
    <vehicle id="275" depart="1206.25">
        <route edges="3fi 3si 2o E1 E4 E5"/>
    </vehicle>
    <vehicle id="276" depart="1207.00">
        <route edges="-E5 -E4 E3 E6"/>
    </vehicle>
    <vehicle id="277" depart="1207.75">
        <route edges="4fi 4si 2o E1 E4 E5"/>
    </vehicle>
    <vehicle id="278" depart="1208.50">
        <route edges="-E5 -E4 E2 E7"/>
    </vehicle>
    <vehicle id="280" depart="1210.00">
        <route edges="-E7 -E2 -E1 2fi 2si 3o"/>
    </vehicle>
    <vehicle id="281" depart="1210.75">
        <route edges="1fi 1si 3o"/>
    </vehicle>
    <vehicle id="282" depart="1211.50">
        <route edges="4fi 4si 2o E1 E3 E6"/>
    </vehicle>
    <vehicle id="283" depart="1212.25">
        <route edges="-E5 -E4 E2 E7"/>
    </vehicle>
    <vehicle id="285" depart="1213.75">
        <route edges="3fi 3si 4o"/>
    </vehicle>
    <vehicle id="286" depart="1214.50">
        <route edges="3fi 3si 2o E1 E2 E7"/>
    </vehicle>
    <vehicle id="288" depart="1216.00">
        <route edges="1fi 1si 4o"/>
    </vehicle>
    <vehicle id="289" depart="1216.75">
        <route edges="-E7 -E2 E3 E6"/>
    </vehicle>
    <vehicle id="291" depart="1218.25">
        <route edges="4fi 4si 1o"/>
    </vehicle>
    <vehicle id="292" depart="1219.00">
        <route edges="4fi 4si 3o"/>
    </vehicle>
    <vehicle id="293" depart="1219.75">
        <route edges="1fi 1si 2o E1 E4 E5"/>
    </vehicle>
    <vehicle id="295" depart="1221.25">
        <route edges="4fi 4si 1o"/>
    </vehicle>
    <vehicle id="301" depart="1225.75">
        <route edges="1fi 1si 2o E1 E3 E6"/>
    </vehicle>
    <vehicle id="302" depart="1226.50">
        <route edges="3fi 3si 2o E1 E4 E5"/>
    </vehicle>
    <vehicle id="303" depart="1227.25">
        <route edges="1fi 1si 2o E1 E3 E6"/>
    </vehicle>
    <vehicle id="306" depart="1229.50">
        <route edges="1fi 1si 4o"/>
    </vehicle>
    <vehicle id="307" depart="1230.25">
        <route edges="1fi 1si 4o"/>
    </vehicle>
    <vehicle id="310" depart="1232.50">
        <route edges="-E6 -E3 -E1 2fi 2si 1o"/>
    </vehicle>
    <vehicle id="311" depart="1233.25">
        <route edges="-E6 -E3 -E1 2fi 2si 1o"/>
    </vehicle>
    <vehicle id="312" depart="1234.00">
        <route edges="1fi 1si 2o E1 E3 E6"/>
    </vehicle>
    <vehicle id="314" depart="1235.50">
        <route edges="1fi 1si 2o E1 E4 E5"/>
    </vehicle>
    <vehicle id="316" depart="1237.00">
        <route edges="-E6 -E3 -E1 2fi 2si 1o"/>
    </vehicle>
    <vehicle id="319" depart="1239.25">
        <route edges="1fi 1si 3o"/>
    </vehicle>
    <vehicle id="321" depart="1240.75">
        <route edges="3fi 3si 1o"/>
    </vehicle>
    <vehicle id="323" depart="1242.25">
        <route edges="4fi 4si 2o E1 E3"/>
    </vehicle>
    <vehicle id="324" depart="1243.00">
        <route edges="1fi 1si 4o"/>
    </vehicle>
    <vehicle id="325" depart="1243.75">
        <route edges="-E5 -E4"/>
    </vehicle>
    <vehicle id="329" depart="1246.75">
        <route edges="-E4 -E1 2fi 2si 1o"/>
    </vehicle>
    <vehicle id="330" depart="1247.50">
        <route edges="1fi 1si 3o"/>
    </vehicle>
    <vehicle id="332" depart="1249.00">
        <route edges="3fi 3si 2o E1 E4 E5"/>
    </vehicle>
    <vehicle id="333" depart="1249.75">
        <route edges="3si 2o"/>
    </vehicle>
    <vehicle id="334" depart="1250.50">
        <route edges="1fi 1si 4o"/>
    </vehicle>
    <vehicle id="335" depart="1251.25">
        <route edges="-E7 -E2 E3 E6"/>
    </vehicle>
    <vehicle id="338" depart="1253.50">
        <route edges="3fi 3si 2o E1 E2 E7"/>
    </vehicle>
    <vehicle id="339" depart="1254.25">
        <route edges="-E6 -E3 -E1 2fi"/>
    </vehicle>
    <vehicle id="340" depart="1255.00">
        <route edges="3fi 3si 1o"/>
    </vehicle>
    <vehicle id="341" depart="1255.75">
        <route edges="-E5 -E4 -E1 2fi 2si 1o"/>
    </vehicle>
    <vehicle id="342" depart="1256.50">
        <route edges="-E1 2fi 2si 4o"/>
    </vehicle>
    <vehicle id="343" depart="1257.25">
        <route edges="1fi 1si 3o"/>
    </vehicle>
    <vehicle id="344" depart="1258.00">
        <route edges="-E6 -E3 E4 E5"/>
    </vehicle>
    <vehicle id="345" depart="1258.75">
        <route edges="3fi 3si 4o"/>
    </vehicle>
    <vehicle id="346" depart="1259.50">
        <route edges="3fi 3si 2o E1 E2 E7"/>
    </vehicle>
    <vehicle id="347" depart="1260.25">
        <route edges="3si 2o E1 E4 E5"/>
    </vehicle>
    <vehicle id="348" depart="1261.00">
        <route edges="3fi 3si 2o E1 E2 E7"/>
    </vehicle>
    <vehicle id="351" depart="1263.25">
        <route edges="4fi 4si 1o"/>
    </vehicle>
    <vehicle id="352" depart="1264.00">
        <route edges="-E5 -E4 -E1 2fi 2si 3o"/>
    </vehicle>
    <vehicle id="353" depart="1264.75">
        <route edges="3fi 3si 2o E1 E3"/>
    </vehicle>
    <vehicle id="354" depart="1265.50">
        <route edges="-E6 -E3 -E1 2fi 2si 1o"/>
    </vehicle>
    <vehicle id="355" depart="1266.25">
        <route edges="3fi 3si 2o E1 E4 E5"/>
    </vehicle>
    <vehicle id="358" depart="1268.50">
        <route edges="-E3 -E1 2fi 2si 4o"/>
    </vehicle>
    <vehicle id="359" depart="1269.25">
        <route edges="-E6 -E3 -E1 2fi 2si 3o"/>
    </vehicle>
    <vehicle id="360" depart="1270.00">
        <route edges="-E5 -E4 E2 E7"/>
    </vehicle>
    <vehicle id="361" depart="1270.75">
        <route edges="4fi 4si 2o E1 E3"/>
    </vehicle>
    <vehicle id="362" depart="1271.50">
        <route edges="E1 E2 E7"/>
    </vehicle>
    <vehicle id="365" depart="1273.75">
        <route edges="1fi 1si 2o E1 E4 E5"/>
    </vehicle>
    <vehicle id="366" depart="1274.50">
        <route edges="4fi 4si 1o"/>
    </vehicle>
    <vehicle id="367" depart="1275.25">
        <route edges="1fi 1si 2o E1 E4 E5"/>
    </vehicle>
    <vehicle id="369" depart="1276.75">
        <route edges="-E7 -E2 -E1 2fi 2si 3o"/>
    </vehicle>
    <vehicle id="370" depart="1277.50">
        <route edges="3fi 3si 2o E1 E3 E6"/>
    </vehicle>
    <vehicle id="371" depart="1278.25">
        <route edges="-E7 -E2 E4 E5"/>
    </vehicle>
    <vehicle id="372" depart="1279.00">
        <route edges="-E6 -E3 E2 E7"/>
    </vehicle>
    <vehicle id="373" depart="1279.75">
        <route edges="4fi 4si 2o E1"/>
    </vehicle>
    <vehicle id="374" depart="1280.50">
        <route edges="-E7 -E2 -E1 2fi 2si 3o"/>
    </vehicle>
    <vehicle id="375" depart="1281.25">
        <route edges="-E6 -E3 E2 E7"/>
    </vehicle>
    <vehicle id="376" depart="1282.00">
        <route edges="-E7 -E2 -E1 2fi 2si 4o"/>
    </vehicle>
    <vehicle id="377" depart="1282.75">
        <route edges="E4 E5"/>
    </vehicle>
    <vehicle id="378" depart="1283.50">
        <route edges="1fi 1si 4o"/>
    </vehicle>
    <vehicle id="379" depart="1284.25">
        <route edges="-E5 -E4 -E1 2fi 2si 3o"/>
    </vehicle>
    <vehicle id="380" depart="1285.00">
        <route edges="3fi 3si 2o E1 E4 E5"/>
    </vehicle>
    <vehicle id="382" depart="1286.50">
        <route edges="1fi 1si 2o E1 E2 E7"/>
    </vehicle>
    <vehicle id="383" depart="1287.25">
        <route edges="-E7 -E2 E4 E5"/>
    </vehicle>
    <vehicle id="384" depart="1288.00">
        <route edges="-E5 -E4 E2 E7"/>
    </vehicle>
    <vehicle id="385" depart="1288.75">
        <route edges="2fi 2si"/>
    </vehicle>
    <vehicle id="391" depart="1293.25">
        <route edges="3fi 3si 4o"/>
    </vehicle>
    <vehicle id="396" depart="1297.00">
        <route edges="4fi 4si 2o E1 E3 E6"/>
    </vehicle>
    <vehicle id="399" depart="1299.25">
        <route edges="1fi 1si 2o E1 E3 E6"/>
    </vehicle>
    <vehicle id="400" depart="1300.00">
        <route edges="-E6 -E3 -E1 2fi 2si 3o"/>
    </vehicle>
    <vehicle id="401" depart="1300.75">
        <route edges="1fi 1si 2o E1 E2 E7"/>
    </vehicle>
    <vehicle id="403" depart="1302.25">
        <route edges="1fi 1si 3o"/>
    </vehicle>
    <vehicle id="404" depart="1303.00">
        <route edges="1fi 1si 2o E1"/>
    </vehicle>
    <vehicle id="405" depart="1303.75">
        <route edges="-E7 -E2 -E1 2fi 2si 3o"/>
    </vehicle>
    <vehicle id="409" depart="1306.75">
        <route edges="3fi 3si 2o E1 E4 E5"/>
    </vehicle>
    <vehicle id="411" depart="1308.25">
        <route edges="3fi 3si 2o E1 E3 E6"/>
    </vehicle>
    <vehicle id="413" depart="1309.75">
        <route edges="-E3 -E1 2fi 2si 4o"/>
    </vehicle>
    <vehicle id="414" depart="1310.50">
        <route edges="1fi 1si 2o E1 E2 E7"/>
    </vehicle>
    <vehicle id="416" depart="1312.00">
        <route edges="1fi 1si 4o"/>
    </vehicle>
    <vehicle id="417" depart="1312.75">
        <route edges="3fi 3si 4o"/>
    </vehicle>
    <vehicle id="418" depart="1313.50">
        <route edges="3fi 3si 1o"/>
    </vehicle>
    <vehicle id="419" depart="1314.25">
        <route edges="1fi 1si 2o E1 E2 E7"/>
    </vehicle>
    <vehicle id="420" depart="1315.00">
        <route edges="-E7 -E2 E4 E5"/>
    </vehicle>
    <vehicle id="421" depart="1315.75">
        <route edges="3fi 3si 2o E1 E3 E6"/>
    </vehicle>
    <vehicle id="422" depart="1316.50">
        <route edges="4fi 4si 2o E1 E3 E6"/>
    </vehicle>
    <vehicle id="423" depart="1317.25">
        <route edges="-E7 -E2 -E1 2fi 2si 3o"/>
    </vehicle>
    <vehicle id="424" depart="1318.00">
        <route edges="3fi 3si 2o E1 E3 E6"/>
    </vehicle>
    <vehicle id="427" depart="1320.25">
        <route edges="4fi 4si 2o E1 E2 E7"/>
    </vehicle>
    <vehicle id="428" depart="1321.00">
        <route edges="3fi 3si 4o"/>
    </vehicle>
    <vehicle id="431" depart="1323.25">
        <route edges="3fi 3si 2o E1 E2 E7"/>
    </vehicle>
    <vehicle id="432" depart="1324.00">
        <route edges="-E4 E3 E6"/>
    </vehicle>
    <vehicle id="433" depart="1324.75">
        <route edges="-E6 -E3 -E1 2fi 2si 3o"/>
    </vehicle>
    <vehicle id="435" depart="1326.25">