<?xml version="1.0" encoding="UTF-8"?>

<!-- generated on 2025-06-12 00:05:47.005392 by randomTrips.py v1_21_0+0000-d7b3b481c43
<configuration>
    <net-file value="networks/2_identical_intersections/net.net.xml"/>
    <output-trip-file value="networks/2_identical_intersections/trips.trips.xml"/>
    <route-file value="networks/2_identical_intersections/routes.rou.xml"/>
    <fringe-factor value="10"/>
    <begin value="1000.0"/>
    <period value="0.75"/>
</configuration>
-->

<routes xmlns:xsi="http://www.w3.org/2001/XMLSchema-instance" xsi:noNamespaceSchemaLocation="http://sumo.dlr.de/xsd/routes_file.xsd">
    <trip id="0" depart="1000.00" from="2si" to="-E2"/>
    <trip id="1" depart="1000.75" from="-E6" to="2o"/>
    <trip id="2" depart="1001.50" from="3fi" to="E5"/>
    <trip id="3" depart="1002.25" from="4fi" to="1o"/>
    <trip id="4" depart="1003.00" from="-E7" to="-E3"/>
    <trip id="5" depart="1003.75" from="-E6" to="4o"/>
    <trip id="6" depart="1004.50" from="-E2" to="1si"/>
    <trip id="7" depart="1005.25" from="3fi" to="E1"/>
    <trip id="8" depart="1006.00" from="-E6" to="E4"/>
    <trip id="9" depart="1006.75" from="4fi" to="-E1"/>
    <trip id="10" depart="1007.50" from="4fi" to="E5"/>
    <trip id="11" depart="1008.25" from="-E7" to="1o"/>
    <trip id="12" depart="1009.00" from="E1" to="3o"/>
    <trip id="13" depart="1009.75" from="-E5" to="1o"/>
    <trip id="14" depart="1010.50" from="4fi" to="E5"/>
    <trip id="15" depart="1011.25" from="4fi" to="E6"/>
    <trip id="16" depart="1012.00" from="1fi" to="E7"/>
    <trip id="17" depart="1012.75" from="-E7" to="E1"/>
    <trip id="18" depart="1013.50" from="4fi" to="E5"/>
    <trip id="19" depart="1014.25" from="4fi" to="E3"/>
    <trip id="20" depart="1015.00" from="3fi" to="-E4"/>
    <trip id="21" depart="1015.75" from="-E6" to="3o"/>
    <trip id="22" depart="1016.50" from="-E5" to="2si"/>
    <trip id="23" depart="1017.25" from="-E5" to="3o"/>
    <trip id="24" depart="1018.00" from="2si" to="3o"/>
    <trip id="25" depart="1018.75" from="-E7" to="2fi"/>
    <trip id="26" depart="1019.50" from="-E6" to="E7"/>
    <trip id="27" depart="1020.25" from="2si" to="E5"/>
    <trip id="28" depart="1021.00" from="-E5" to="E5"/>
    <trip id="29" depart="1021.75" from="-E5" to="3si"/>
    <trip id="30" depart="1022.50" from="E4" to="E5"/>
    <trip id="31" depart="1023.25" from="1fi" to="E5"/>
    <trip id="32" depart="1024.00" from="4fi" to="E6"/>
    <trip id="33" depart="1024.75" from="-E6" to="-E3"/>
    <trip id="34" depart="1025.50" from="-E6" to="3o"/>
    <trip id="35" depart="1026.25" from="-E6" to="E7"/>
    <trip id="36" depart="1027.00" from="4fi" to="3o"/>
    <trip id="37" depart="1027.75" from="3fi" to="4o"/>
    <trip id="38" depart="1028.50" from="4fi" to="4o"/>
    <trip id="39" depart="1029.25" from="-E6" to="3o"/>
    <trip id="40" depart="1030.00" from="1fi" to="3o"/>
    <trip id="41" depart="1030.75" from="1fi" to="E7"/>
    <trip id="42" depart="1031.50" from="-E7" to="2o"/>
    <trip id="43" depart="1032.25" from="E4" to="4o"/>
    <trip id="44" depart="1033.00" from="-E5" to="-E4"/>
    <trip id="45" depart="1033.75" from="-E5" to="E5"/>
    <trip id="46" depart="1034.50" from="3si" to="4o"/>
    <trip id="47" depart="1035.25" from="-E5" to="3si"/>
    <trip id="48" depart="1036.00" from="E4" to="4si"/>
    <trip id="49" depart="1036.75" from="E2" to="E6"/>
    <trip id="50" depart="1037.50" from="-E1" to="E5"/>
    <trip id="51" depart="1038.25" from="3fi" to="4si"/>
    <trip id="52" depart="1039.00" from="-E6" to="E5"/>
    <trip id="53" depart="1039.75" from="-E5" to="4o"/>
    <trip id="54" depart="1040.50" from="-E7" to="E7"/>
    <trip id="55" depart="1041.25" from="4fi" to="3o"/>
    <trip id="56" depart="1042.00" from="1fi" to="1o"/>
    <trip id="57" depart="1042.75" from="4fi" to="E7"/>
    <trip id="58" depart="1043.50" from="-E6" to="E5"/>
    <trip id="59" depart="1044.25" from="2fi" to="1o"/>
    <trip id="60" depart="1045.00" from="3fi" to="4si"/>
    <trip id="61" depart="1045.75" from="3fi" to="4si"/>
    <trip id="62" depart="1046.50" from="-E1" to="3o"/>
    <trip id="63" depart="1047.25" from="-E2" to="E7"/>
    <trip id="64" depart="1048.00" from="4fi" to="E6"/>
    <trip id="65" depart="1048.75" from="-E6" to="1o"/>
    <trip id="66" depart="1049.50" from="4fi" to="E7"/>
    <trip id="67" depart="1050.25" from="-E5" to="4o"/>
    <trip id="68" depart="1051.00" from="-E5" to="E6"/>
    <trip id="69" depart="1051.75" from="3fi" to="1o"/>
    <trip id="70" depart="1052.50" from="1fi" to="E1"/>
    <trip id="71" depart="1053.25" from="-E6" to="E7"/>
    <trip id="72" depart="1054.00" from="-E7" to="2fi"/>
    <trip id="73" depart="1054.75" from="1fi" to="E6"/>
    <trip id="74" depart="1055.50" from="-E6" to="3o"/>
    <trip id="75" depart="1056.25" from="E4" to="E5"/>
    <trip id="76" depart="1057.00" from="-E7" to="4o"/>
    <trip id="77" depart="1057.75" from="-E5" to="2o"/>
    <trip id="78" depart="1058.50" from="-E7" to="E4"/>
    <trip id="79" depart="1059.25" from="-E6" to="2o"/>
    <trip id="80" depart="1060.00" from="-E5" to="E5"/>
    <trip id="81" depart="1060.75" from="-E6" to="E7"/>
    <trip id="82" depart="1061.50" from="4fi" to="1o"/>
    <trip id="83" depart="1062.25" from="-E6" to="E5"/>
    <trip id="84" depart="1063.00" from="-E6" to="1o"/>
    <trip id="85" depart="1063.75" from="4si" to="E3"/>
    <trip id="86" depart="1064.50" from="1fi" to="E6"/>
    <trip id="87" depart="1065.25" from="4fi" to="1si"/>
    <trip id="88" depart="1066.00" from="-E5" to="4o"/>
    <trip id="89" depart="1066.75" from="-E7" to="4o"/>
    <trip id="90" depart="1067.50" from="3fi" to="E5"/>
    <trip id="91" depart="1068.25" from="E3" to="1o"/>
    <trip id="92" depart="1069.00" from="-E7" to="3o"/>
    <trip id="93" depart="1069.75" from="4fi" to="3o"/>
    <trip id="94" depart="1070.50" from="-E6" to="4o"/>
    <trip id="95" depart="1071.25" from="-E7" to="3o"/>
    <trip id="96" depart="1072.00" from="-E6" to="E7"/>
    <trip id="97" depart="1072.75" from="-E7" to="E6"/>
    <trip id="98" depart="1073.50" from="1fi" to="-E4"/>
    <trip id="99" depart="1074.25" from="E4" to="E6"/>
    <trip id="100" depart="1075.00" from="E2" to="E7"/>
    <trip id="101" depart="1075.75" from="4fi" to="1o"/>
    <trip id="102" depart="1076.50" from="1fi" to="2fi"/>
    <trip id="103" depart="1077.25" from="-E7" to="1o"/>
    <trip id="104" depart="1078.00" from="-E7" to="E7"/>
    <trip id="105" depart="1078.75" from="-E6" to="E6"/>
    <trip id="106" depart="1079.50" from="-E7" to="4o"/>
    <trip id="107" depart="1080.25" from="E1" to="E7"/>
    <trip id="108" depart="1081.00" from="1fi" to="E5"/>
    <trip id="109" depart="1081.75" from="-E5" to="3o"/>
    <trip id="110" depart="1082.50" from="E2" to="E3"/>
    <trip id="111" depart="1083.25" from="1fi" to="E6"/>
    <trip id="112" depart="1084.00" from="-E5" to="E4"/>
    <trip id="113" depart="1084.75" from="1fi" to="E6"/>
    <trip id="114" depart="1085.50" from="-E5" to="E7"/>
    <trip id="115" depart="1086.25" from="-E5" to="1o"/>
    <trip id="116" depart="1087.00" from="1si" to="E5"/>
    <trip id="117" depart="1087.75" from="-E6" to="1o"/>
    <trip id="118" depart="1088.50" from="4fi" to="3o"/>
    <trip id="119" depart="1089.25" from="1fi" to="E5"/>
    <trip id="120" depart="1090.00" from="-E7" to="E4"/>
    <trip id="121" depart="1090.75" from="1fi" to="E7"/>
    <trip id="122" depart="1091.50" from="-E6" to="E5"/>
    <trip id="123" depart="1092.25" from="-E6" to="4o"/>
    <trip id="124" depart="1093.00" from="3fi" to="3o"/>
    <trip id="125" depart="1093.75" from="-E6" to="E6"/>
    <trip id="126" depart="1094.50" from="-E5" to="4o"/>
    <trip id="127" depart="1095.25" from="E4" to="E7"/>
    <trip id="128" depart="1096.00" from="-E5" to="2fi"/>
    <trip id="129" depart="1096.75" from="-E6" to="E7"/>
    <trip id="130" depart="1097.50" from="4fi" to="E7"/>
    <trip id="131" depart="1098.25" from="-E7" to="1o"/>
    <trip id="132" depart="1099.00" from="4fi" to="E5"/>
    <trip id="133" depart="1099.75" from="2fi" to="E7"/>
    <trip id="134" depart="1100.50" from="3fi" to="-E1"/>
    <trip id="135" depart="1101.25" from="4fi" to="3o"/>
    <trip id="136" depart="1102.00" from="3fi" to="E7"/>
    <trip id="137" depart="1102.75" from="-E5" to="1o"/>
    <trip id="138" depart="1103.50" from="-E5" to="E1"/>
    <trip id="139" depart="1104.25" from="-E6" to="E5"/>
    <trip id="140" depart="1105.00" from="3fi" to="2fi"/>
    <trip id="141" depart="1105.75" from="2o" to="3o"/>
    <trip id="142" depart="1106.50" from="1fi" to="E7"/>
    <trip id="143" depart="1107.25" from="4fi" to="1o"/>
    <trip id="144" depart="1108.00" from="-E7" to="3o"/>
    <trip id="145" depart="1108.75" from="-E1" to="E6"/>
    <trip id="146" depart="1109.50" from="2si" to="3o"/>
    <trip id="147" depart="1110.25" from="3fi" to="E1"/>
    <trip id="148" depart="1111.00" from="-E7" to="-E1"/>
    <trip id="149" depart="1111.75" from="-E5" to="E7"/>
    <trip id="150" depart="1112.50" from="4fi" to="E1"/>
    <trip id="151" depart="1113.25" from="4fi" to="E4"/>
    <trip id="152" depart="1114.00" from="-E5" to="1o"/>
    <trip id="153" depart="1114.75" from="-E6" to="E7"/>
    <trip id="154" depart="1115.50" from="3si" to="E6"/>
    <trip id="155" depart="1116.25" from="4fi" to="2fi"/>
    <trip id="156" depart="1117.00" from="-E6" to="1o"/>
    <trip id="157" depart="1117.75" from="3fi" to="E7"/>
    <trip id="158" depart="1118.50" from="-E7" to="E5"/>
    <trip id="159" depart="1119.25" from="-E5" to="E7"/>
    <trip id="160" depart="1120.00" from="4fi" to="E7"/>
    <trip id="161" depart="1120.75" from="4fi" to="E7"/>
    <trip id="162" depart="1121.50" from="-E2" to="E6"/>
    <trip id="163" depart="1122.25" from="-E7" to="E7"/>
    <trip id="164" depart="1123.00" from="4fi" to="E6"/>
    <trip id="165" depart="1123.75" from="4fi" to="3o"/>
    <trip id="166" depart="1124.50" from="3si" to="1o"/>
    <trip id="167" depart="1125.25" from="4fi" to="E6"/>
    <trip id="168" depart="1126.00" from="-E6" to="E6"/>
    <trip id="169" depart="1126.75" from="1fi" to="3o"/>
    <trip id="170" depart="1127.50" from="3si" to="2o"/>
    <trip id="171" depart="1128.25" from="-E2" to="1si"/>
    <trip id="172" depart="1129.00" from="-E7" to="E6"/>
    <trip id="173" depart="1129.75" from="E2" to="3o"/>
    <trip id="174" depart="1130.50" from="2si" to="4o"/>
    <trip id="175" depart="1131.25" from="E3" to="4si"/>
    <trip id="176" depart="1132.00" from="4si" to="1o"/>
    <trip id="177" depart="1132.75" from="E2" to="1o"/>
    <trip id="178" depart="1133.50" from="E2" to="3o"/>
    <trip id="179" depart="1134.25" from="-E5" to="4o"/>
    <trip id="180" depart="1135.00" from="3fi" to="3o"/>
    <trip id="181" depart="1135.75" from="1si" to="4o"/>
    <trip id="182" depart="1136.50" from="-E7" to="E3"/>
    <trip id="183" depart="1137.25" from="-E6" to="E5"/>
    <trip id="184" depart="1138.00" from="-E1" to="E7"/>
    <trip id="185" depart="1138.75" from="1fi" to="E5"/>
    <trip id="186" depart="1139.50" from="3fi" to="E5"/>
    <trip id="187" depart="1140.25" from="-E7" to="1o"/>
    <trip id="188" depart="1141.00" from="3fi" to="3o"/>
    <trip id="189" depart="1141.75" from="-E6" to="E6"/>
    <trip id="190" depart="1142.50" from="3fi" to="3o"/>
    <trip id="191" depart="1143.25" from="-E6" to="4o"/>
    <trip id="192" depart="1144.00" from="-E7" to="3o"/>
    <trip id="193" depart="1144.75" from="-E5" to="4o"/>
    <trip id="194" depart="1145.50" from="4si" to="E5"/>
    <trip id="195" depart="1146.25" from="4fi" to="E5"/>
    <trip id="196" depart="1147.00" from="-E6" to="E1"/>
    <trip id="197" depart="1147.75" from="-E1" to="3o"/>
    <trip id="198" depart="1148.50" from="-E7" to="E3"/>
    <trip id="199" depart="1149.25" from="3fi" to="4o"/>
    <trip id="200" depart="1150.00" from="-E7" to="2fi"/>
    <trip id="201" depart="1150.75" from="1fi" to="E7"/>
    <trip id="202" depart="1151.50" from="3si" to="1o"/>
    <trip id="203" depart="1152.25" from="-E5" to="4o"/>
    <trip id="204" depart="1153.00" from="2o" to="3o"/>
    <trip id="205" depart="1153.75" from="4fi" to="E6"/>
    <trip id="206" depart="1154.50" from="3fi" to="2o"/>
    <trip id="207" depart="1155.25" from="-E6" to="-E2"/>
    <trip id="208" depart="1156.00" from="-E6" to="4o"/>
    <trip id="209" depart="1156.75" from="4fi" to="1o"/>
    <trip id="210" depart="1157.50" from="-E7" to="E5"/>
    <trip id="211" depart="1158.25" from="-E6" to="E5"/>
    <trip id="212" depart="1159.00" from="1fi" to="3o"/>
    <trip id="213" depart="1159.75" from="3fi" to="-E1"/>
    <trip id="214" depart="1160.50" from="3fi" to="E6"/>
    <trip id="215" depart="1161.25" from="-E5" to="4o"/>
    <trip id="216" depart="1162.00" from="-E5" to="E7"/>
    <trip id="217" depart="1162.75" from="1fi" to="-E4"/>
    <trip id="218" depart="1163.50" from="-E6" to="E6"/>
    <trip id="219" depart="1164.25" from="-E7" to="E6"/>
    <trip id="220" depart="1165.00" from="3fi" to="E7"/>
    <trip id="221" depart="1165.75" from="1si" to="E7"/>
    <trip id="222" depart="1166.50" from="4fi" to="E5"/>
    <trip id="223" depart="1167.25" from="3fi" to="4o"/>
    <trip id="224" depart="1168.00" from="4fi" to="E1"/>
    <trip id="225" depart="1168.75" from="4fi" to="E6"/>
    <trip id="226" depart="1169.50" from="1fi" to="3o"/>
    <trip id="227" depart="1170.25" from="-E6" to="E5"/>
    <trip id="228" depart="1171.00" from="3fi" to="4o"/>
    <trip id="229" depart="1171.75" from="2o" to="3o"/>
    <trip id="230" depart="1172.50" from="-E5" to="3o"/>
    <trip id="231" depart="1173.25" from="-E6" to="3o"/>
    <trip id="232" depart="1174.00" from="1fi" to="1o"/>
    <trip id="233" depart="1174.75" from="-E6" to="E5"/>
    <trip id="234" depart="1175.50" from="3fi" to="1o"/>
    <trip id="235" depart="1176.25" from="-E7" to="E1"/>
    <trip id="236" depart="1177.00" from="-E7" to="2fi"/>
    <trip id="237" depart="1177.75" from="-E7" to="E7"/>
    <trip id="238" depart="1178.50" from="1fi" to="E5"/>
    <trip id="239" depart="1179.25" from="4fi" to="E6"/>
    <trip id="240" depart="1180.00" from="-E7" to="-E1"/>
    <trip id="241" depart="1180.75" from="-E7" to="E6"/>
    <trip id="242" depart="1181.50" from="4fi" to="E7"/>
    <trip id="243" depart="1182.25" from="-E7" to="E6"/>
    <trip id="244" depart="1183.00" from="1fi" to="E5"/>
    <trip id="245" depart="1183.75" from="-E6" to="2o"/>
    <trip id="246" depart="1184.50" from="-E7" to="-E3"/>
    <trip id="247" depart="1185.25" from="-E7" to="E5"/>
    <trip id="248" depart="1186.00" from="-E7" to="1o"/>
    <trip id="249" depart="1186.75" from="1fi" to="1o"/>
    <trip id="250" depart="1187.50" from="2o" to="-E2"/>
    <trip id="251" depart="1188.25" from="-E7" to="E2"/>
    <trip id="252" depart="1189.00" from="-E3" to="E5"/>
    <trip id="253" depart="1189.75" from="-E5" to="4o"/>
    <trip id="254" depart="1190.50" from="-E4" to="3si"/>
    <trip id="255" depart="1191.25" from="-E6" to="3o"/>
    <trip id="256" depart="1192.00" from="3fi" to="3si"/>
    <trip id="257" depart="1192.75" from="3fi" to="E6"/>
    <trip id="258" depart="1193.50" from="-E6" to="1o"/>
    <trip id="259" depart="1194.25" from="-E2" to="4si"/>
    <trip id="260" depart="1195.00" from="E4" to="3o"/>
    <trip id="261" depart="1195.75" from="3fi" to="E6"/>
    <trip id="262" depart="1196.50" from="3fi" to="E6"/>
    <trip id="263" depart="1197.25" from="E1" to="1si"/>
    <trip id="264" depart="1198.00" from="-E2" to="1o"/>
    <trip id="265" depart="1198.75" from="-E5" to="E5"/>
    <trip id="266" depart="1199.50" from="1fi" to="2o"/>
    <trip id="267" depart="1200.25" from="3fi" to="E6"/>
    <trip id="268" depart="1201.00" from="-E5" to="E5"/>
    <trip id="269" depart="1201.75" from="3fi" to="1o"/>
    <trip id="270" depart="1202.50" from="4fi" to="E7"/>
    <trip id="271" depart="1203.25" from="-E5" to="-E2"/>
    <trip id="272" depart="1204.00" from="-E6" to="E5"/>
    <trip id="273" depart="1204.75" from="E1" to="4o"/>
    <trip id="274" depart="1205.50" from="3fi" to="1o"/>
    <trip id="275" depart="1206.25" from="3fi" to="E5"/>
    <trip id="276" depart="1207.00" from="-E5" to="E6"/>
    <trip id="277" depart="1207.75" from="4fi" to="E5"/>
    <trip id="278" depart="1208.50" from="-E5" to="E7"/>
    <trip id="279" depart="1209.25" from="3fi" to="3o"/>
    <trip id="280" depart="1210.00" from="-E7" to="3o"/>
    <trip id="281" depart="1210.75" from="1fi" to="3o"/>
    <trip id="282" depart="1211.50" from="4fi" to="E6"/>
    <trip id="283" depart="1212.25" from="-E5" to="E7"/>
    <trip id="284" depart="1213.00" from="2si" to="E6"/>
    <trip id="285" depart="1213.75" from="3fi" to="4o"/>
    <trip id="286" depart="1214.50" from="3fi" to="E7"/>
    <trip id="287" depart="1215.25" from="-E6" to="E6"/>
    <trip id="288" depart="1216.00" from="1fi" to="4o"/>
    <trip id="289" depart="1216.75" from="-E7" to="E6"/>
    <trip id="290" depart="1217.50" from="-E6" to="E6"/>
    <trip id="291" depart="1218.25" from="4fi" to="1o"/>
    <trip id="292" depart="1219.00" from="4fi" to="3o"/>
    <trip id="293" depart="1219.75" from="1fi" to="E5"/>
    <trip id="294" depart="1220.50" from="-E7" to="-E3"/>
    <trip id="295" depart="1221.25" from="4fi" to="1o"/>
    <trip id="296" depart="1222.00" from="-E6" to="E6"/>
    <trip id="297" depart="1222.75" from="-E7" to="E7"/>
    <trip id="298" depart="1223.50" from="3fi" to="3o"/>
    <trip id="299" depart="1224.25" from="-E1" to="E7"/>
    <trip id="300" depart="1225.00" from="-E5" to="E5"/>
    <trip id="301" depart="1225.75" from="1fi" to="E6"/>
    <trip id="302" depart="1226.50" from="3fi" to="E5"/>
    <trip id="303" depart="1227.25" from="1fi" to="E6"/>
    <trip id="304" depart="1228.00" from="-E5" to="2o"/>
    <trip id="305" depart="1228.75" from="3fi" to="3o"/>
    <trip id="306" depart="1229.50" from="1fi" to="4o"/>
    <trip id="307" depart="1230.25" from="1fi" to="4o"/>
    <trip id="308" depart="1231.00" from="3fi" to="3o"/>
    <trip id="309" depart="1231.75" from="3fi" to="3o"/>
    <trip id="310" depart="1232.50" from="-E6" to="1o"/>
    <trip id="311" depart="1233.25" from="-E6" to="1o"/>
    <trip id="312" depart="1234.00" from="1fi" to="E6"/>
    <trip id="313" depart="1234.75" from="-E5" to="2o"/>
    <trip id="314" depart="1235.50" from="1fi" to="E5"/>
    <trip id="315" depart="1236.25" from="E3" to="4o"/>
    <trip id="316" depart="1237.00" from="-E6" to="1o"/>
    <trip id="317" depart="1237.75" from="-E6" to="2o"/>
    <trip id="318" depart="1238.50" from="-E5" to="-E2"/>
    <trip id="319" depart="1239.25" from="1fi" to="3o"/>
    <trip id="320" depart="1240.00" from="E3" to="E1"/>
    <trip id="321" depart="1240.75" from="3fi" to="1o"/>
    <trip id="322" depart="1241.50" from="4fi" to="4o"/>
    <trip id="323" depart="1242.25" from="4fi" to="E3"/>
    <trip id="324" depart="1243.00" from="1fi" to="4o"/>
    <trip id="325" depart="1243.75" from="-E5" to="-E4"/>
    <trip id="326" depart="1244.50" from="4si" to="4o"/>
    <trip id="327" depart="1245.25" from="4fi" to="4o"/>
    <trip id="328" depart="1246.00" from="-E5" to="E5"/>
    <trip id="329" depart="1246.75" from="-E4" to="1o"/>
    <trip id="330" depart="1247.50" from="1fi" to="3o"/>
    <trip id="331" depart="1248.25" from="E4" to="1o"/>
    <trip id="332" depart="1249.00" from="3fi" to="E5"/>
    <trip id="333" depart="1249.75" from="3si" to="2o"/>
    <trip id="334" depart="1250.50" from="1fi" to="4o"/>
    <trip id="335" depart="1251.25" from="-E7" to="E6"/>
    <trip id="336" depart="1252.00" from="E4" to="3o"/>
    <trip id="337" depart="1252.75" from="2fi" to="E5"/>
    <trip id="338" depart="1253.50" from="3fi" to="E7"/>
    <trip id="339" depart="1254.25" from="-E6" to="2fi"/>
    <trip id="340" depart="1255.00" from="3fi" to="1o"/>
    <trip id="341" depart="1255.75" from="-E5" to="1o"/>
    <trip id="342" depart="1256.50" from="-E1" to="4o"/>
    <trip id="343" depart="1257.25" from="1fi" to="3o"/>
    <trip id="344" depart="1258.00" from="-E6" to="E5"/>
    <trip id="345" depart="1258.75" from="3fi" to="4o"/>
    <trip id="346" depart="1259.50" from="3fi" to="E7"/>
    <trip id="347" depart="1260.25" from="3si" to="E5"/>
    <trip id="348" depart="1261.00" from="3fi" to="E7"/>
    <trip id="349" depart="1261.75" from="-E7" to="E1"/>
    <trip id="350" depart="1262.50" from="2si" to="E7"/>
    <trip id="351" depart="1263.25" from="4fi" to="1o"/>
    <trip id="352" depart="1264.00" from="-E5" to="3o"/>
    <trip id="353" depart="1264.75" from="3fi" to="E3"/>
    <trip id="354" depart="1265.50" from="-E6" to="1o"/>
    <trip id="355" depart="1266.25" from="3fi" to="E5"/>
    <trip id="356" depart="1267.00" from="4si" to="4o"/>
    <trip id="357" depart="1267.75" from="1fi" to="1o"/>
    <trip id="358" depart="1268.50" from="-E3" to="4o"/>
    <trip id="359" depart="1269.25" from="-E6" to="3o"/>
    <trip id="360" depart="1270.00" from="-E5" to="E7"/>
    <trip id="361" depart="1270.75" from="4fi" to="E3"/>
    <trip id="362" depart="1271.50" from="E1" to="E7"/>
    <trip id="363" depart="1272.25" from="3fi" to="3o"/>
    <trip id="364" depart="1273.00" from="-E3" to="E6"/>
    <trip id="365" depart="1273.75" from="1fi" to="E5"/>
    <trip id="366" depart="1274.50" from="4fi" to="1o"/>
    <trip id="367" depart="1275.25" from="1fi" to="E5"/>
    <trip id="368" depart="1276.00" from="1fi" to="1o"/>
    <trip id="369" depart="1276.75" from="-E7" to="3o"/>
    <trip id="370" depart="1277.50" from="3fi" to="E6"/>
    <trip id="371" depart="1278.25" from="-E7" to="E5"/>
    <trip id="372" depart="1279.00" from="-E6" to="E7"/>
    <trip id="373" depart="1279.75" from="4fi" to="E1"/>
    <trip id="374" depart="1280.50" from="-E7" to="3o"/>
    <trip id="375" depart="1281.25" from="-E6" to="E7"/>
    <trip id="376" depart="1282.00" from="-E7" to="4o"/>
    <trip id="377" depart="1282.75" from="E4" to="E5"/>
    <trip id="378" depart="1283.50" from="1fi" to="4o"/>
    <trip id="379" depart="1284.25" from="-E5" to="3o"/>
    <trip id="380" depart="1285.00" from="3fi" to="E5"/>
    <trip id="381" depart="1285.75" from="3fi" to="2fi"/>
    <trip id="382" depart="1286.50" from="1fi" to="E7"/>
    <trip id="383" depart="1287.25" from="-E7" to="E5"/>
    <trip id="384" depart="1288.00" from="-E5" to="E7"/>
    <trip id="385" depart="1288.75" from="2fi" to="2si"/>
    <trip id="386" depart="1289.50" from="-E5" to="E1"/>
    <trip id="387" depart="1290.25" from="1fi" to="1o"/>
    <trip id="388" depart="1291.00" from="E4" to="E7"/>
    <trip id="389" depart="1291.75" from="1fi" to="1o"/>
    <trip id="390" depart="1292.50" from="4fi" to="4o"/>
    <trip id="391" depart="1293.25" from="3fi" to="4o"/>
    <trip id="392" depart="1294.00" from="-E6" to="E6"/>
    <trip id="393" depart="1294.75" from="E3" to="3o"/>
    <trip id="394" depart="1295.50" from="1fi" to="3si"/>
    <trip id="395" depart="1296.25" from="4fi" to="4o"/>
    <trip id="396" depart="1297.00" from="4fi" to="E6"/>
    <trip id="397" depart="1297.75" from="-E6" to="E6"/>
    <trip id="398" depart="1298.50" from="-E7" to="E7"/>
    <trip id="399" depart="1299.25" from="1fi" to="E6"/>
    <trip id="400" depart="1300.00" from="-E6" to="3o"/>
    <trip id="401" depart="1300.75" from="1fi" to="E7"/>
    <trip id="402" depart="1301.50" from="1fi" to="1o"/>
    <trip id="403" depart="1302.25" from="1fi" to="3o"/>
    <trip id="404" depart="1303.00" from="1fi" to="E1"/>
    <trip id="405" depart="1303.75" from="-E7" to="3o"/>
    <trip id="406" depart="1304.50" from="-E5" to="E5"/>
    <trip id="407" depart="1305.25" from="1fi" to="2si"/>
    <trip id="408" depart="1306.00" from="3fi" to="-E4"/>
    <trip id="409" depart="1306.75" from="3fi" to="E5"/>
    <trip id="410" depart="1307.50" from="4fi" to="3si"/>
    <trip id="411" depart="1308.25" from="3fi" to="E6"/>
    <trip id="412" depart="1309.00" from="E3" to="4o"/>
    <trip id="413" depart="1309.75" from="-E3" to="4o"/>
    <trip id="414" depart="1310.50" from="1fi" to="E7"/>
    <trip id="415" depart="1311.25" from="4fi" to="4o"/>
    <trip id="416" depart="1312.00" from="1fi" to="4o"/>
    <trip id="417" depart="1312.75" from="3fi" to="4o"/>
    <trip id="418" depart="1313.50" from="3fi" to="1o"/>
    <trip id="419" depart="1314.25" from="1fi" to="E7"/>
    <trip id="420" depart="1315.00" from="-E7" to="E5"/>
    <trip id="421" depart="1315.75" from="3fi" to="E6"/>
    <trip id="422" depart="1316.50" from="4fi" to="E6"/>
    <trip id="423" depart="1317.25" from="-E7" to="3o"/>
    <trip id="424" depart="1318.00" from="3fi" to="E6"/>
    <trip id="425" depart="1318.75" from="4fi" to="-E3"/>
    <trip id="426" depart="1319.50" from="-E5" to="E5"/>
    <trip id="427" depart="1320.25" from="4fi" to="E7"/>
    <trip id="428" depart="1321.00" from="3fi" to="4o"/>
    <trip id="429" depart="1321.75" from="-E5" to="E5"/>
    <trip id="430" depart="1322.50" from="4fi" to="4o"/>
    <trip id="431" depart="1323.25" from="3fi" to="E7"/>
    <trip id="432" depart="1324.00" from="-E4" to="E6"/>
    <trip id="433" depart="1324.75" from="-E6" to="3o"/>
    <trip id="434" depart="1325.50" from="-E5" to="4si"/>
    <trip id="435" depart="1326.25" from="1fi" to="E6"/>
    <trip id="436" depart="1327.00" from="-E5" to="1o"/>
    <trip id="437" depart="1327.75" from="4fi" to="E5"/>
    <trip id="438" depart="1328.50" from="-E6" to="E7"/>
    <trip id="439" depart="1329.25" from="-E5" to="4o"/>
    <trip id="440" depart="1330.00" from="-E6" to="3o"/>
    <trip id="441" depart="1330.75" from="-E1" to="E6"/>
    <trip id="442" depart="1331.50" from="4fi" to="E5"/>
    <trip id="443" depart="1332.25" from="-E5" to="4o"/>
    <trip id="444" depart="1333.00" from="-E7" to="E4"/>
    <trip id="445" depart="1333.75" from="2si" to="4o"/>
    <trip id="446" depart="1334.50" from="-E6" to="E6"/>
    <trip id="447" depart="1335.25" from="-E6" to="3si"/>
    <trip id="448" depart="1336.00" from="1fi" to="2si"/>
    <trip id="449" depart="1336.75" from="1fi" to="E3"/>
    <trip id="450" depart="1337.50" from="E4" to="3o"/>
    <trip id="451" depart="1338.25" from="E3" to="E5"/>
    <trip id="452" depart="1339.00" from="-E6" to="E2"/>
    <trip id="453" depart="1339.75" from="3fi" to="E6"/>
    <trip id="454" depart="1340.50" from="-E4" to="E5"/>
    <trip id="455" depart="1341.25" from="1fi" to="E7"/>
    <trip id="456" depart="1342.00" from="-E6" to="E6"/>
    <trip id="457" depart="1342.75" from="1si" to="3o"/>
    <trip id="458" depart="1343.50" from="2si" to="E5"/>
    <trip id="459" depart="1344.25" from="3fi" to="E5"/>
    <trip id="460" depart="1345.00" from="3fi" to="E6"/>
    <trip id="461" depart="1345.75" from="2o" to="E7"/>
    <trip id="462" depart="1346.50" from="2si" to="3o"/>
    <trip id="463" depart="1347.25" from="-E7" to="E3"/>
    <trip id="464" depart="1348.00" from="3fi" to="1o"/>
    <trip id="465" depart="1348.75" from="-E6" to="E6"/>
    <trip id="466" depart="1349.50" from="-E5" to="1o"/>
    <trip id="467" depart="1350.25" from="1fi" to="E7"/>
    <trip id="468" depart="1351.00" from="1fi" to="E7"/>
    <trip id="469" depart="1351.75" from="4fi" to="3o"/>
    <trip id="470" depart="1352.50" from="4fi" to="4o"/>
    <trip id="471" depart="1353.25" from="4fi" to="E6"/>
    <trip id="472" depart="1354.00" from="-E7" to="1o"/>
    <trip id="473" depart="1354.75" from="E2" to="1o"/>
    <trip id="474" depart="1355.50" from="E2" to="E6"/>
    <trip id="475" depart="1356.25" from="3fi" to="E7"/>
    <trip id="476" depart="1357.00" from="E2" to="E6"/>
    <trip id="477" depart="1357.75" from="-E7" to="E6"/>
    <trip id="478" depart="1358.50" from="-E2" to="4si"/>
    <trip id="479" depart="1359.25" from="-E7" to="E5"/>
    <trip id="480" depart="1360.00" from="3fi" to="E4"/>
    <trip id="481" depart="1360.75" from="4fi" to="E7"/>
    <trip id="482" depart="1361.50" from="-E5" to="2si"/>
    <trip id="483" depart="1362.25" from="-E2" to="E7"/>
    <trip id="484" depart="1363.00" from="1fi" to="E7"/>
    <trip id="485" depart="1363.75" from="-E6" to="1o"/>
    <trip id="486" depart="1364.50" from="4fi" to="E7"/>
    <trip id="487" depart="1365.25" from="-E6" to="4o"/>
    <trip id="488" depart="1366.00" from="-E5" to="E7"/>
    <trip id="489" depart="1366.75" from="-E6" to="4o"/>
    <trip id="490" depart="1367.50" from="-E5" to="E7"/>
    <trip id="491" depart="1368.25" from="-E5" to="4o"/>
    <trip id="492" depart="1369.00" from="3fi" to="E6"/>
    <trip id="493" depart="1369.75" from="E1" to="4o"/>
    <trip id="494" depart="1370.50" from="3fi" to="1o"/>
    <trip id="495" depart="1371.25" from="-E7" to="1o"/>
    <trip id="496" depart="1372.00" from="1fi" to="4o"/>
    <trip id="497" depart="1372.75" from="E1" to="-E3"/>
    <trip id="498" depart="1373.50" from="-E7" to="4o"/>
    <trip id="499" depart="1374.25" from="E1" to="E6"/>
    <trip id="500" depart="1375.00" from="-E5" to="E5"/>
    <trip id="501" depart="1375.75" from="1fi" to="E7"/>
    <trip id="502" depart="1376.50" from="-E7" to="4o"/>
    <trip id="503" depart="1377.25" from="-E6" to="1o"/>
    <trip id="504" depart="1378.00" from="4fi" to="4o"/>
    <trip id="505" depart="1378.75" from="3fi" to="E5"/>
    <trip id="506" depart="1379.50" from="1si" to="-E2"/>
    <trip id="507" depart="1380.25" from="3si" to="3o"/>
    <trip id="508" depart="1381.00" from="-E5" to="E2"/>
    <trip id="509" depart="1381.75" from="-E5" to="E6"/>
    <trip id="510" depart="1382.50" from="-E6" to="2fi"/>
    <trip id="511" depart="1383.25" from="4fi" to="3o"/>
    <trip id="512" depart="1384.00" from="-E5" to="E7"/>
    <trip id="513" depart="1384.75" from="-E1" to="E6"/>
    <trip id="514" depart="1385.50" from="-E5" to="1o"/>
    <trip id="515" depart="1386.25" from="-E6" to="1o"/>
    <trip id="516" depart="1387.00" from="3fi" to="-E2"/>