<?xml version="1.0" encoding="UTF-8"?>

<!-- generated on 2025-06-20 15:28:41.215205 by randomTrips.py v1_21_0+0000-d7b3b481c43
<configuration>
    <net-file value="networks/cross3ltl-training/1/net.net.xml"/>
    <output-trip-file value="networks/cross3ltl-training/1/trips.trips.xml"/>
    <route-file value="networks/cross3ltl-training/1/routes.rou.xml"/>
    <prefix value="_"/>
    <fringe-factor value="10"/>
    <begin value="2000.0"/>
    <period value="1.0"/>
</configuration>
-->

<!-- generated on 2025-06-20 15:28:41 by Eclipse SUMO duarouter Version 1.21.0
<duarouterConfiguration xmlns:xsi="http://www.w3.org/2001/XMLSchema-instance" xsi:noNamespaceSchemaLocation="http://sumo.dlr.de/xsd/duarouterConfiguration.xsd">

    <input>
        <net-file value="networks/cross3ltl-training/1/net.net.xml"/>
        <route-files value="networks/cross3ltl-training/1/trips.trips.xml"/>
    </input>

    <output>
        <output-file value="networks/cross3ltl-training/1/routes.rou.xml"/>
        <alternatives-output value="NUL"/>
    </output>

    <time>
        <begin value="2000.0"/>
        <end value="3600.0"/>
    </time>

    <report>
        <no-warnings value="true"/>
        <ignore-errors value="true"/>
        <no-step-log value="true"/>
    </report>

</duarouterConfiguration>
-->

<routes xmlns:xsi="http://www.w3.org/2001/XMLSchema-instance" xsi:noNamespaceSchemaLocation="http://sumo.dlr.de/xsd/routes_file.xsd">
    <vehicle id="_0" depart="2000.00">
        <route edges="3fi 3si 1o"/>
    </vehicle>
    <vehicle id="_1" depart="2001.00">
        <route edges="2fi 2si 1o"/>
    </vehicle>
    <vehicle id="_2" depart="2002.00">
        <route edges="3si 3o"/>
    </vehicle>
    <vehicle id="_3" depart="2003.00">
        <route edges="4fi 4si 1o"/>
    </vehicle>
    <vehicle id="_4" depart="2004.00">
        <route edges="2fi 2si 1o"/>
    </vehicle>
    <vehicle id="_5" depart="2005.00">
        <route edges="1fi 1si 3o"/>
    </vehicle>
    <vehicle id="_6" depart="2006.00">
        <route edges="1fi 1si 1o"/>
    </vehicle>
    <vehicle id="_7" depart="2007.00">
        <route edges="3fi 3si 3o"/>
    </vehicle>
    <vehicle id="_8" depart="2008.00">
        <route edges="1fi 1si 3o"/>
    </vehicle>
    <vehicle id="_9" depart="2009.00">
        <route edges="4fi 4si 1o"/>
    </vehicle>
    <vehicle id="_10" depart="2010.00">
        <route edges="4fi 4si 3o"/>
    </vehicle>
    <vehicle id="_11" depart="2011.00">
        <route edges="2fi 2si 1o"/>
    </vehicle>
    <vehicle id="_12" depart="2012.00">
        <route edges="4fi 4si 2o"/>
    </vehicle>
    <vehicle id="_13" depart="2013.00">
        <route edges="1fi 1si 1o"/>
    </vehicle>
    <vehicle id="_14" depart="2014.00">
        <route edges="4fi 4si 3o"/>
    </vehicle>
    <vehicle id="_15" depart="2015.00">
        <route edges="4fi 4si 3o 3fi 3si"/>
    </vehicle>
    <vehicle id="_16" depart="2016.00">
        <route edges="3fi 3si 4o"/>
    </vehicle>
    <vehicle id="_17" depart="2017.00">
        <route edges="2fi 2si 3o"/>
    </vehicle>
    <vehicle id="_18" depart="2018.00">
        <route edges="4fi 4si 3o"/>
    </vehicle>
    <vehicle id="_19" depart="2019.00">
        <route edges="4fi 4si 3o"/>
    </vehicle>
    <vehicle id="_20" depart="2020.00">
        <route edges="3fi 3si 1o"/>
    </vehicle>
    <vehicle id="_21" depart="2021.00">
        <route edges="1si 2o"/>
    </vehicle>
    <vehicle id="_22" depart="2022.00">
        <route edges="1fi 1si"/>
    </vehicle>
    <vehicle id="_23" depart="2023.00">
        <route edges="1fi 1si 2o"/>
    </vehicle>
    <vehicle id="_24" depart="2024.00">
        <route edges="3fi 3si 2o"/>
    </vehicle>
    <vehicle id="_25" depart="2025.00">
        <route edges="2fi 2si 1o"/>
    </vehicle>
    <vehicle id="_26" depart="2026.00">
        <route edges="2fi 2si 4o"/>
    </vehicle>
    <vehicle id="_27" depart="2027.00">
        <route edges="3fi 3si 3o"/>
    </vehicle>
    <vehicle id="_28" depart="2028.00">
        <route edges="1fi 1si 3o 3fi 3si"/>
    </vehicle>
    <vehicle id="_29" depart="2029.00">
        <route edges="1fi 1si 2o"/>
    </vehicle>
    <vehicle id="_30" depart="2030.00">
        <route edges="4si 3o"/>
    </vehicle>
    <vehicle id="_31" depart="2031.00">
        <route edges="3fi 3si 3o"/>
    </vehicle>
    <vehicle id="_32" depart="2032.00">
        <route edges="4fi 4si 4o"/>
    </vehicle>
    <vehicle id="_33" depart="2033.00">
        <route edges="1si 1o"/>
    </vehicle>
    <vehicle id="_34" depart="2034.00">
        <route edges="2fi 2si 2o"/>
    </vehicle>
    <vehicle id="_35" depart="2035.00">
        <route edges="1fi 1si 4o"/>
    </vehicle>
    <vehicle id="_36" depart="2036.00">
        <route edges="4fi 4si 2o"/>
    </vehicle>
    <vehicle id="_37" depart="2037.00">
        <route edges="3fi 3si 2o"/>
    </vehicle>
    <vehicle id="_38" depart="2038.00">
        <route edges="4fi 4si 2o"/>
    </vehicle>
    <vehicle id="_39" depart="2039.00">
        <route edges="2fi 2si 1o 1fi 1si"/>
    </vehicle>
    <vehicle id="_40" depart="2040.00">
        <route edges="3fi 3si 2o"/>
    </vehicle>
    <vehicle id="_41" depart="2041.00">
        <route edges="3fi 3si 4o"/>
    </vehicle>
    <vehicle id="_42" depart="2042.00">
        <route edges="2fi 2si 1o"/>
    </vehicle>
    <vehicle id="_43" depart="2043.00">
        <route edges="4si 3o"/>
    </vehicle>
    <vehicle id="_44" depart="2044.00">
        <route edges="1fi 1si 1o"/>
    </vehicle>
    <vehicle id="_45" depart="2045.00">
        <route edges="1fi 1si 3o"/>
    </vehicle>
    <vehicle id="_46" depart="2046.00">
        <route edges="4fi 4si 2o"/>
    </vehicle>
    <vehicle id="_47" depart="2047.00">
        <route edges="1fi 1si 2o"/>
    </vehicle>
    <vehicle id="_48" depart="2048.00">
        <route edges="4si 3o"/>
    </vehicle>
    <vehicle id="_49" depart="2049.00">
        <route edges="4fi 4si 4o"/>
    </vehicle>
    <vehicle id="_50" depart="2050.00">
        <route edges="1fi 1si 3o"/>
    </vehicle>
    <vehicle id="_51" depart="2051.00">
        <route edges="3fi 3si 3o"/>
    </vehicle>
    <vehicle id="_52" depart="2052.00">
        <route edges="2fi 2si 3o"/>
    </vehicle>
    <vehicle id="_53" depart="2053.00">
        <route edges="1fi 1si 2o"/>
    </vehicle>
    <vehicle id="_54" depart="2054.00">
        <route edges="2fi 2si 4o"/>
    </vehicle>
    <vehicle id="_55" depart="2055.00">
        <route edges="4fi 4si 2o"/>
    </vehicle>
    <vehicle id="_56" depart="2056.00">
        <route edges="3fi 3si 1o"/>
    </vehicle>
    <vehicle id="_57" depart="2057.00">
        <route edges="4fi 4si 4o"/>
    </vehicle>
    <vehicle id="_58" depart="2058.00">
        <route edges="2fi 2si 3o"/>
    </vehicle>
    <vehicle id="_59" depart="2059.00">
        <route edges="3fi 3si 1o"/>
    </vehicle>
    <vehicle id="_60" depart="2060.00">
        <route edges="4fi 4si 3o"/>
    </vehicle>
    <vehicle id="_61" depart="2061.00">
        <route edges="4fi 4si 3o"/>
    </vehicle>
    <vehicle id="_62" depart="2062.00">
        <route edges="1fi 1si 2o"/>
    </vehicle>
    <vehicle id="_63" depart="2063.00">
        <route edges="1fi 1si 4o"/>
    </vehicle>
    <vehicle id="_64" depart="2064.00">
        <route edges="4fi 4si 4o"/>
    </vehicle>
    <vehicle id="_65" depart="2065.00">
        <route edges="2fi 2si 1o"/>
    </vehicle>
    <vehicle id="_66" depart="2066.00">
        <route edges="4fi 4si 4o"/>
    </vehicle>
    <vehicle id="_67" depart="2067.00">
        <route edges="1fi 1si 2o 2fi 2si"/>
    </vehicle>
    <vehicle id="_68" depart="2068.00">
        <route edges="1fi 1si 4o"/>
    </vehicle>
    <vehicle id="_69" depart="2069.00">
        <route edges="4fi 4si 1o"/>
    </vehicle>
    <vehicle id="_70" depart="2070.00">
        <route edges="2fi 2si 3o"/>
    </vehicle>
    <vehicle id="_71" depart="2071.00">
        <route edges="2fi 2si 4o"/>
    </vehicle>
    <vehicle id="_72" depart="2072.00">
        <route edges="2fi 2si 1o"/>
    </vehicle>
    <vehicle id="_73" depart="2073.00">
        <route edges="3fi 3si"/>
    </vehicle>
    <vehicle id="_74" depart="2074.00">
        <route edges="1fi 1si 2o"/>
    </vehicle>
    <vehicle id="_75" depart="2075.00">
        <route edges="4si 3o"/>
    </vehicle>
    <vehicle id="_76" depart="2076.00">
        <route edges="2fi 2si 3o"/>
    </vehicle>
    <vehicle id="_77" depart="2077.00">
        <route edges="1fi 1si 1o"/>
    </vehicle>
    <vehicle id="_78" depart="2078.00">
        <route edges="2fi 2si 3o"/>
    </vehicle>
    <vehicle id="_79" depart="2079.00">
        <route edges="1si 1o"/>
    </vehicle>
    <vehicle id="_80" depart="2080.00">
        <route edges="1fi 1si 3o"/>
    </vehicle>
    <vehicle id="_81" depart="2081.00">
        <route edges="1si 4o"/>
    </vehicle>
    <vehicle id="_82" depart="2082.00">
        <route edges="4fi 4si 1o"/>
    </vehicle>
    <vehicle id="_83" depart="2083.00">
        <route edges="1si 3o"/>
    </vehicle>
    <vehicle id="_84" depart="2084.00">
        <route edges="1fi 1si 1o"/>
    </vehicle>
    <vehicle id="_85" depart="2085.00">
        <route edges="4fi 4si 3o"/>
    </vehicle>
    <vehicle id="_86" depart="2086.00">
        <route edges="2fi 2si 4o"/>
    </vehicle>
    <vehicle id="_87" depart="2087.00">
        <route edges="4fi 4si 1o"/>
    </vehicle>
    <vehicle id="_88" depart="2088.00">
        <route edges="1fi 1si 2o"/>
    </vehicle>
    <vehicle id="_89" depart="2089.00">
        <route edges="2fi 2si 2o"/>
    </vehicle>
    <vehicle id="_90" depart="2090.00">
        <route edges="3si 3o"/>
    </vehicle>
    <vehicle id="_91" depart="2091.00">
        <route edges="4si 1o"/>
    </vehicle>
    <vehicle id="_92" depart="2092.00">
        <route edges="2fi 2si 2o"/>
    </vehicle>
    <vehicle id="_93" depart="2093.00">
        <route edges="4fi 4si 1o 1fi 1si"/>
    </vehicle>
    <vehicle id="_94" depart="2094.00">
        <route edges="1fi 1si 2o"/>
    </vehicle>
    <vehicle id="_95" depart="2095.00">
        <route edges="2fi 2si 2o"/>
    </vehicle>
    <vehicle id="_96" depart="2096.00">
        <route edges="1si 4o"/>
    </vehicle>
    <vehicle id="_97" depart="2097.00">
        <route edges="2fi 2si 4o"/>
    </vehicle>
    <vehicle id="_98" depart="2098.00">
        <route edges="3fi 3si 1o"/>
    </vehicle>
    <vehicle id="_99" depart="2099.00">
        <route edges="4si 4o"/>
    </vehicle>
    <vehicle id="_100" depart="2100.00">
        <route edges="4fi 4si 4o"/>
    </vehicle>
    <vehicle id="_101" depart="2101.00">
        <route edges="4fi 4si 1o"/>
    </vehicle>
    <vehicle id="_102" depart="2102.00">
        <route edges="2si 1o"/>
    </vehicle>
    <vehicle id="_103" depart="2103.00">
        <route edges="2fi 2si 1o"/>
    </vehicle>
    <vehicle id="_104" depart="2104.00">
        <route edges="2fi 2si 4o 4fi 4si"/>
    </vehicle>
    <vehicle id="_105" depart="2105.00">
        <route edges="2fi 2si 4o"/>
    </vehicle>
    <vehicle id="_106" depart="2106.00">
        <route edges="2fi 2si 2o"/>
    </vehicle>
    <vehicle id="_107" depart="2107.00">
        <route edges="4fi 4si"/>
    </vehicle>
    <vehicle id="_108" depart="2108.00">
        <route edges="3fi 3si 3o"/>
    </vehicle>
    <vehicle id="_109" depart="2109.00">
        <route edges="1fi 1si 2o"/>
    </vehicle>
    <vehicle id="_110" depart="2110.00">
        <route edges="4fi 4si 3o"/>
    </vehicle>
    <vehicle id="_111" depart="2111.00">
        <route edges="3fi 3si"/>
    </vehicle>
    <vehicle id="_112" depart="2112.00">
        <route edges="1fi 1si 3o"/>
    </vehicle>
    <vehicle id="_113" depart="2113.00">
        <route edges="3fi 3si 4o"/>
    </vehicle>
    <vehicle id="_114" depart="2114.00">
        <route edges="1fi 1si 4o"/>
    </vehicle>
    <vehicle id="_115" depart="2115.00">
        <route edges="1fi 1si 1o"/>
    </vehicle>
    <vehicle id="_116" depart="2116.00">
        <route edges="3fi 3si 3o"/>
    </vehicle>
    <vehicle id="_117" depart="2117.00">
        <route edges="1si 1o"/>
    </vehicle>
    <vehicle id="_118" depart="2118.00">
        <route edges="4fi 4si 1o 1fi 1si"/>
    </vehicle>
    <vehicle id="_119" depart="2119.00">
        <route edges="3fi 3si 3o"/>
    </vehicle>
    <vehicle id="_120" depart="2120.00">
        <route edges="2fi 2si 3o"/>
    </vehicle>
    <vehicle id="_121" depart="2121.00">
        <route edges="3fi 3si 4o"/>
    </vehicle>
    <vehicle id="_122" depart="2122.00">
        <route edges="1fi 1si 3o"/>
    </vehicle>
    <vehicle id="_123" depart="2123.00">
        <route edges="1si 2o"/>
    </vehicle>
    <vehicle id="_124" depart="2124.00">
        <route edges="3fi 3si 2o"/>
    </vehicle>
    <vehicle id="_125" depart="2125.00">
        <route edges="2fi 2si 4o"/>
    </vehicle>
    <vehicle id="_126" depart="2126.00">
        <route edges="1fi 1si 2o"/>
    </vehicle>
    <vehicle id="_127" depart="2127.00">
        <route edges="4si"/>
    </vehicle>
    <vehicle id="_128" depart="2128.00">
        <route edges="1fi 1si 1o"/>
    </vehicle>
    <vehicle id="_129" depart="2129.00">
        <route edges="2fi 2si 4o"/>
    </vehicle>
    <vehicle id="_130" depart="2130.00">
        <route edges="4fi 4si 4o"/>
    </vehicle>
    <vehicle id="_131" depart="2131.00">
        <route edges="2fi 2si 1o"/>
    </vehicle>
    <vehicle id="_132" depart="2132.00">
        <route edges="4fi 4si 3o"/>
    </vehicle>
    <vehicle id="_133" depart="2133.00">
        <route edges="3fi 3si 4o 4fi 4si"/>
    </vehicle>
    <vehicle id="_134" depart="2134.00">
        <route edges="3fi 3si 1o"/>
    </vehicle>
    <vehicle id="_135" depart="2135.00">
        <route edges="4fi 4si 2o"/>
    </vehicle>
    <vehicle id="_136" depart="2136.00">
        <route edges="3fi 3si 4o"/>
    </vehicle>
    <vehicle id="_137" depart="2137.00">
        <route edges="1fi 1si 1o"/>
    </vehicle>
    <vehicle id="_138" depart="2138.00">
        <route edges="1fi 1si 3o"/>
    </vehicle>
    <vehicle id="_139" depart="2139.00">
        <route edges="2fi 2si 3o"/>
    </vehicle>
    <vehicle id="_140" depart="2140.00">
        <route edges="3fi 3si 1o"/>
    </vehicle>
    <vehicle id="_141" depart="2141.00">
        <route edges="3fi 3si 2o"/>
    </vehicle>
    <vehicle id="_142" depart="2142.00">
        <route edges="2si 4o"/>
    </vehicle>
    <vehicle id="_143" depart="2143.00">
        <route edges="4fi 4si 1o"/>
    </vehicle>
    <vehicle id="_144" depart="2144.00">
        <route edges="2fi 2si 2o"/>
    </vehicle>
    <vehicle id="_145" depart="2145.00">
        <route edges="1fi 1si 4o"/>
    </vehicle>
    <vehicle id="_146" depart="2146.00">
        <route edges="3fi 3si 2o"/>
    </vehicle>
    <vehicle id="_147" depart="2147.00">
        <route edges="3si 3o"/>
    </vehicle>
    <vehicle id="_148" depart="2148.00">
        <route edges="2fi 2si 1o"/>
    </vehicle>
    <vehicle id="_149" depart="2149.00">
        <route edges="1fi 1si 4o"/>
    </vehicle>
    <vehicle id="_150" depart="2150.00">
        <route edges="4fi 4si 3o"/>
    </vehicle>
    <vehicle id="_151" depart="2151.00">
        <route edges="4fi 4si 3o"/>
    </vehicle>
    <vehicle id="_152" depart="2152.00">
        <route edges="1fi 1si 1o"/>
    </vehicle>
    <vehicle id="_153" depart="2153.00">
        <route edges="2fi 2si 4o"/>
    </vehicle>
    <vehicle id="_154" depart="2154.00">
        <route edges="4fi 4si 4o"/>
    </vehicle>
    <vehicle id="_155" depart="2155.00">
        <route edges="4fi 4si 1o"/>
    </vehicle>
    <vehicle id="_156" depart="2156.00">
        <route edges="1si 1o"/>
    </vehicle>
    <vehicle id="_157" depart="2157.00">
        <route edges="4fi 4si 4o"/>
    </vehicle>
    <vehicle id="_158" depart="2158.00">
        <route edges="2fi 2si 3o"/>
    </vehicle>
    <vehicle id="_159" depart="2159.00">
        <route edges="1fi 1si 4o"/>
    </vehicle>
    <vehicle id="_160" depart="2160.00">
        <route edges="4fi 4si 4o"/>
    </vehicle>
    <vehicle id="_161" depart="2161.00">
        <route edges="4fi 4si 4o"/>
    </vehicle>
    <vehicle id="_162" depart="2162.00">
        <route edges="1fi 1si 3o 3fi 3si"/>
    </vehicle>
    <vehicle id="_163" depart="2163.00">
        <route edges="2fi 2si 4o"/>
    </vehicle>
    <vehicle id="_164" depart="2164.00">
        <route edges="4fi 4si 4o"/>
    </vehicle>
    <vehicle id="_165" depart="2165.00">
        <route edges="4fi 4si 2o"/>
    </vehicle>
    <vehicle id="_166" depart="2166.00">
        <route edges="4fi 4si 1o"/>
    </vehicle>
    <vehicle id="_167" depart="2167.00">
        <route edges="4fi 4si 4o"/>
    </vehicle>
    <vehicle id="_168" depart="2168.00">
        <route edges="1fi 1si 4o"/>
    </vehicle>
    <vehicle id="_169" depart="2169.00">
        <route edges="2fi 2si 2o"/>
    </vehicle>
    <vehicle id="_170" depart="2170.00">
        <route edges="4fi 4si 1o 1fi 1si"/>
    </vehicle>
    <vehicle id="_171" depart="2171.00">
        <route edges="1fi 1si 1o"/>
    </vehicle>
    <vehicle id="_172" depart="2172.00">
        <route edges="2fi 2si 4o"/>
    </vehicle>
    <vehicle id="_173" depart="2173.00">
        <route edges="4fi 4si 2o"/>
    </vehicle>
    <vehicle id="_174" depart="2174.00">
        <route edges="3fi 3si 2o"/>
    </vehicle>
    <vehicle id="_175" depart="2175.00">
        <route edges="4si 3o"/>
    </vehicle>
    <vehicle id="_176" depart="2176.00">
        <route edges="4fi 4si 1o"/>
    </vehicle>
    <vehicle id="_177" depart="2177.00">
        <route edges="4fi 4si 1o"/>
    </vehicle>
    <vehicle id="_178" depart="2178.00">
        <route edges="4fi 4si 2o"/>
    </vehicle>
    <vehicle id="_179" depart="2179.00">
        <route edges="1fi 1si 2o"/>
    </vehicle>
    <vehicle id="_180" depart="2180.00">
        <route edges="3si 2o"/>
    </vehicle>
    <vehicle id="_181" depart="2181.00">
        <route edges="3fi 3si 3o"/>
    </vehicle>
    <vehicle id="_182" depart="2182.00">
        <route edges="2fi 2si 3o"/>
    </vehicle>
    <vehicle id="_183" depart="2183.00">
        <route edges="2fi 2si 3o"/>
    </vehicle>
    <vehicle id="_184" depart="2184.00">
        <route edges="1fi 1si 4o"/>
    </vehicle>
    <vehicle id="_185" depart="2185.00">
        <route edges="3fi 3si 3o"/>
    </vehicle>
    <vehicle id="_186" depart="2186.00">
        <route edges="3si 3o"/>
    </vehicle>
    <vehicle id="_187" depart="2187.00">
        <route edges="2fi 2si 1o"/>
    </vehicle>
    <vehicle id="_188" depart="2188.00">
        <route edges="3fi 3si 2o"/>
    </vehicle>
    <vehicle id="_189" depart="2189.00">
        <route edges="2fi 2si 4o"/>
    </vehicle>
    <vehicle id="_190" depart="2190.00">
        <route edges="3fi 3si 2o"/>
    </vehicle>
    <vehicle id="_191" depart="2191.00">
        <route edges="2fi 2si 2o"/>
    </vehicle>
    <vehicle id="_192" depart="2192.00">
        <route edges="2fi 2si 2o"/>
    </vehicle>
    <vehicle id="_193" depart="2193.00">
        <route edges="1fi 1si 2o"/>
    </vehicle>
    <vehicle id="_194" depart="2194.00">
        <route edges="4fi 4si 3o"/>
    </vehicle>
    <vehicle id="_195" depart="2195.00">
        <route edges="4fi 4si 3o"/>
    </vehicle>
    <vehicle id="_196" depart="2196.00">
        <route edges="2fi 2si 3o"/>
    </vehicle>
    <vehicle id="_197" depart="2197.00">
        <route edges="1fi 1si 2o"/>
    </vehicle>
    <vehicle id="_198" depart="2198.00">
        <route edges="2fi 2si 3o"/>
    </vehicle>
    <vehicle id="_199" depart="2199.00">
        <route edges="3fi 3si 2o"/>
    </vehicle>
    <vehicle id="_200" depart="2200.00">
        <route edges="2fi 2si 1o"/>
    </vehicle>
    <vehicle id="_201" depart="2201.00">
        <route edges="2fi 2si 4o"/>
    </vehicle>
    <vehicle id="_202" depart="2202.00">
        <route edges="4fi 4si 1o"/>
    </vehicle>
    <vehicle id="_203" depart="2203.00">
        <route edges="1fi 1si 3o"/>
    </vehicle>
    <vehicle id="_204" depart="2204.00">
        <route edges="3fi 3si 2o"/>
    </vehicle>
    <vehicle id="_205" depart="2205.00">
        <route edges="4fi 4si 4o"/>
    </vehicle>
    <vehicle id="_206" depart="2206.00">
        <route edges="3fi 3si 1o"/>
    </vehicle>
    <vehicle id="_207" depart="2207.00">
        <route edges="1fi 1si 1o"/>
    </vehicle>
    <vehicle id="_208" depart="2208.00">
        <route edges="1si 2o"/>
    </vehicle>
    <vehicle id="_209" depart="2209.00">
        <route edges="4fi 4si 1o"/>
    </vehicle>
    <vehicle id="_210" depart="2210.00">
        <route edges="2fi 2si 3o"/>
    </vehicle>
    <vehicle id="_211" depart="2211.00">
        <route edges="1fi 1si 3o"/>
    </vehicle>
    <vehicle id="_212" depart="2212.00">
        <route edges="2si 1o 1fi 1si"/>
    </vehicle>
    <vehicle id="_213" depart="2213.00">
        <route edges="3fi 3si 1o"/>
    </vehicle>
    <vehicle id="_214" depart="2214.00">
        <route edges="4fi 4si 4o"/>
    </vehicle>
    <vehicle id="_215" depart="2215.00">
        <route edges="1fi 1si 2o"/>
    </vehicle>
    <vehicle id="_216" depart="2216.00">
        <route edges="1fi 1si 4o"/>
    </vehicle>
    <vehicle id="_217" depart="2217.00">
        <route edges="3fi 3si 1o"/>
    </vehicle>
    <vehicle id="_218" depart="2218.00">
        <route edges="1si 4o"/>
    </vehicle>
    <vehicle id="_219" depart="2219.00">
        <route edges="2fi 2si 4o"/>
    </vehicle>
    <vehicle id="_220" depart="2220.00">
        <route edges="3fi 3si 4o 4fi 4si"/>
    </vehicle>
    <vehicle id="_221" depart="2221.00">
        <route edges="3fi 3si 4o"/>
    </vehicle>
    <vehicle id="_222" depart="2222.00">
        <route edges="4fi 4si 3o"/>
    </vehicle>
    <vehicle id="_223" depart="2223.00">
        <route edges="3fi 3si 3o"/>
    </vehicle>
    <vehicle id="_224" depart="2224.00">
        <route edges="4fi 4si 3o"/>
    </vehicle>
    <vehicle id="_225" depart="2225.00">
        <route edges="4fi 4si 3o 3fi 3si"/>
    </vehicle>
    <vehicle id="_226" depart="2226.00">
        <route edges="2fi 2si 2o"/>
    </vehicle>
    <vehicle id="_227" depart="2227.00">
        <route edges="1si 3o"/>
    </vehicle>
    <vehicle id="_228" depart="2228.00">
        <route edges="4fi 4si 3o"/>
    </vehicle>
    <vehicle id="_229" depart="2229.00">
        <route edges="3fi 3si 2o"/>
    </vehicle>
    <vehicle id="_230" depart="2230.00">
        <route edges="1fi 1si 2o"/>
    </vehicle>
    <vehicle id="_231" depart="2231.00">
        <route edges="2fi 2si 2o"/>
    </vehicle>
    <vehicle id="_232" depart="2232.00">
        <route edges="3fi 3si 1o"/>
    </vehicle>
    <vehicle id="_233" depart="2233.00">
        <route edges="1si 3o"/>
    </vehicle>
    <vehicle id="_234" depart="2234.00">
        <route edges="3fi 3si 1o"/>
    </vehicle>
    <vehicle id="_235" depart="2235.00">
        <route edges="2fi 2si 3o"/>
    </vehicle>
    <vehicle id="_236" depart="2236.00">
        <route edges="2fi 2si 1o"/>
    </vehicle>
    <vehicle id="_237" depart="2237.00">
        <route edges="2fi 2si 4o"/>
    </vehicle>
    <vehicle id="_238" depart="2238.00">
        <route edges="3fi 3si 3o"/>
    </vehicle>
    <vehicle id="_239" depart="2239.00">
        <route edges="4fi 4si 4o"/>
    </vehicle>
    <vehicle id="_240" depart="2240.00">
        <route edges="2fi 2si 1o"/>
    </vehicle>
    <vehicle id="_241" depart="2241.00">
        <route edges="2fi 2si 4o"/>
    </vehicle>
    <vehicle id="_242" depart="2242.00">
        <route edges="4fi 4si 4o"/>
    </vehicle>
    <vehicle id="_243" depart="2243.00">
        <route edges="2fi 2si 3o 3fi 3si"/>
    </vehicle>
    <vehicle id="_244" depart="2244.00">
        <route edges="3fi 3si 3o"/>
    </vehicle>
    <vehicle id="_245" depart="2245.00">
        <route edges="1fi 1si 1o"/>
    </vehicle>
    <vehicle id="_246" depart="2246.00">
        <route edges="2fi 2si 1o"/>
    </vehicle>
    <vehicle id="_247" depart="2247.00">
        <route edges="2fi 2si 3o"/>
    </vehicle>
    <vehicle id="_248" depart="2248.00">
        <route edges="2fi 2si 1o"/>
    </vehicle>
    <vehicle id="_249" depart="2249.00">
        <route edges="2fi 2si 1o"/>
    </vehicle>
    <vehicle id="_250" depart="2250.00">
        <route edges="3fi 3si 1o"/>
    </vehicle>
    <vehicle id="_251" depart="2251.00">
        <route edges="2fi 2si 3o"/>
    </vehicle>
    <vehicle id="_252" depart="2252.00">
        <route edges="1fi 1si 3o"/>
    </vehicle>
    <vehicle id="_253" depart="2253.00">
        <route edges="1fi 1si 2o"/>
    </vehicle>
    <vehicle id="_254" depart="2254.00">
        <route edges="1fi 1si 2o"/>
    </vehicle>
    <vehicle id="_255" depart="2255.00">
        <route edges="1fi 1si 2o"/>
    </vehicle>
    <vehicle id="_256" depart="2256.00">
        <route edges="4fi 4si 2o"/>
    </vehicle>
    <vehicle id="_257" depart="2257.00">
        <route edges="4fi 4si 4o"/>
    </vehicle>
    <vehicle id="_258" depart="2258.00">
        <route edges="2fi 2si 1o"/>
    </vehicle>
    <vehicle id="_259" depart="2259.00">
        <route edges="1fi 1si 3o"/>
    </vehicle>
    <vehicle id="_260" depart="2260.00">
        <route edges="4si 2o"/>
    </vehicle>
    <vehicle id="_261" depart="2261.00">
        <route edges="3fi 3si 4o"/>
    </vehicle>
    <vehicle id="_262" depart="2262.00">
        <route edges="3fi 3si 4o"/>
    </vehicle>
    <vehicle id="_263" depart="2263.00">
        <route edges="4fi 4si 1o"/>
    </vehicle>
    <vehicle id="_264" depart="2264.00">
        <route edges="1fi 1si 1o"/>
    </vehicle>
    <vehicle id="_265" depart="2265.00">
        <route edges="1fi 1si 3o"/>
    </vehicle>
    <vehicle id="_266" depart="2266.00">
        <route edges="3fi 3si 1o"/>
    </vehicle>
    <vehicle id="_267" depart="2267.00">
        <route edges="3fi 3si 4o"/>
    </vehicle>
    <vehicle id="_268" depart="2268.00">
        <route edges="1fi 1si 3o"/>
    </vehicle>
    <vehicle id="_269" depart="2269.00">
        <route edges="3si 1o"/>
    </vehicle>
    <vehicle id="_270" depart="2270.00">
        <route edges="4fi 4si 4o"/>
    </vehicle>
    <vehicle id="_271" depart="2271.00">
        <route edges="1fi 1si 1o"/>
    </vehicle>
    <vehicle id="_272" depart="2272.00">
        <route edges="2fi 2si 3o"/>
    </vehicle>
    <vehicle id="_273" depart="2273.00">
        <route edges="4fi 4si 2o"/>
    </vehicle>
    <vehicle id="_274" depart="2274.00">
        <route edges="3fi 3si 1o"/>
    </vehicle>
    <vehicle id="_275" depart="2275.00">
        <route edges="3fi 3si 3o"/>
    </vehicle>
    <vehicle id="_276" depart="2276.00">
        <route edges="1fi 1si 4o"/>
    </vehicle>
    <vehicle id="_277" depart="2277.00">
        <route edges="4fi 4si 3o"/>
    </vehicle>
    <vehicle id="_278" depart="2278.00">
        <route edges="1fi 1si 4o 4fi 4si"/>
    </vehicle>
    <vehicle id="_279" depart="2279.00">
        <route edges="4fi 4si 2o"/>
    </vehicle>
    <vehicle id="_280" depart="2280.00">
        <route edges="2fi 2si 2o"/>
    </vehicle>
    <vehicle id="_281" depart="2281.00">
        <route edges="3fi 3si 2o"/>
    </vehicle>
    <vehicle id="_282" depart="2282.00">
        <route edges="4fi 4si 4o"/>
    </vehicle>
    <vehicle id="_283" depart="2283.00">
        <route edges="1fi 1si 4o"/>
    </vehicle>
    <vehicle id="_284" depart="2284.00">
        <route edges="3fi 3si 4o"/>
    </vehicle>
    <vehicle id="_285" depart="2285.00">
        <route edges="3fi 3si 2o"/>
    </vehicle>
    <vehicle id="_286" depart="2286.00">
        <route edges="3si 4o"/>
    </vehicle>
    <vehicle id="_287" depart="2287.00">
        <route edges="2fi 2si 4o"/>
    </vehicle>
    <vehicle id="_288" depart="2288.00">
        <route edges="3fi 3si 2o 2fi 2si"/>
    </vehicle>
    <vehicle id="_289" depart="2289.00">
        <route edges="2fi 2si 3o 3fi 3si"/>
    </vehicle>
    <vehicle id="_290" depart="2290.00">
        <route edges="2fi 2si 4o"/>
    </vehicle>
    <vehicle id="_291" depart="2291.00">
        <route edges="4fi 4si 1o"/>
    </vehicle>
    <vehicle id="_292" depart="2292.00">
        <route edges="4fi 4si 1o 1fi 1si"/>
    </vehicle>
    <vehicle id="_293" depart="2293.00">
        <route edges="2fi 2si 3o"/>
    </vehicle>
    <vehicle id="_294" depart="2294.00">
        <route edges="2fi 2si 1o"/>
    </vehicle>
    <vehicle id="_295" depart="2295.00">
        <route edges="4fi 4si 1o"/>
    </vehicle>
    <vehicle id="_296" depart="2296.00">
        <route edges="1fi 1si 4o"/>
    </vehicle>
    <vehicle id="_297" depart="2297.00">
        <route edges="2fi 2si 4o"/>
    </vehicle>
    <vehicle id="_298" depart="2298.00">
        <route edges="3fi 3si 2o"/>
    </vehicle>
    <vehicle id="_299" depart="2299.00">
        <route edges="1fi 1si 4o"/>
    </vehicle>
    <vehicle id="_300" depart="2300.00">
        <route edges="1fi 1si 3o"/>
    </vehicle>
    <vehicle id="_301" depart="2301.00">
        <route edges="2si 4o"/>
    </vehicle>
    <vehicle id="_302" depart="2302.00">
        <route edges="3fi 3si 3o"/>
    </vehicle>
    <vehicle id="_303" depart="2303.00">
        <route edges="2si 4o"/>
    </vehicle>
    <vehicle id="_304" depart="2304.00">
        <route edges="1fi 1si 1o"/>
    </vehicle>
    <vehicle id="_305" depart="2305.00">
        <route edges="3fi 3si 2o"/>
    </vehicle>
    <vehicle id="_306" depart="2306.00">
        <route edges="3fi 3si 2o"/>
    </vehicle>
    <vehicle id="_307" depart="2307.00">
        <route edges="3fi 3si 2o"/>
    </vehicle>
    <vehicle id="_308" depart="2308.00">
        <route edges="3si 2o"/>
    </vehicle>
    <vehicle id="_309" depart="2309.00">
        <route edges="3fi 3si 2o"/>
    </vehicle>
    <vehicle id="_310" depart="2310.00">
        <route edges="2fi 2si 1o"/>
    </vehicle>
    <vehicle id="_311" depart="2311.00">