<?xml version="1.0" encoding="UTF-8"?>

<!-- generated on 2025-06-20 15:28:40.974776 by randomTrips.py v1_21_0+0000-d7b3b481c43
<configuration>
    <net-file value="networks/cross3ltl-training/1/net.net.xml"/>
    <output-trip-file value="networks/cross3ltl-training/1/trips.trips.xml"/>
    <route-file value="networks/cross3ltl-training/1/routes.rou.xml"/>
    <prefix value="_"/>
    <fringe-factor value="10"/>
    <begin value="2000.0"/>
    <period value="1.0"/>
</configuration>
-->

<routes xmlns:xsi="http://www.w3.org/2001/XMLSchema-instance" xsi:noNamespaceSchemaLocation="http://sumo.dlr.de/xsd/routes_file.xsd">
    <trip id="_0" depart="2000.00" from="3fi" to="1o"/>
    <trip id="_1" depart="2001.00" from="2fi" to="1o"/>
    <trip id="_2" depart="2002.00" from="3si" to="3o"/>
    <trip id="_3" depart="2003.00" from="4fi" to="1o"/>
    <trip id="_4" depart="2004.00" from="2fi" to="1o"/>
    <trip id="_5" depart="2005.00" from="1fi" to="3o"/>
    <trip id="_6" depart="2006.00" from="1fi" to="1o"/>
    <trip id="_7" depart="2007.00" from="3fi" to="3o"/>
    <trip id="_8" depart="2008.00" from="1fi" to="3o"/>
    <trip id="_9" depart="2009.00" from="4fi" to="1o"/>
    <trip id="_10" depart="2010.00" from="4fi" to="3o"/>
    <trip id="_11" depart="2011.00" from="2fi" to="1o"/>
    <trip id="_12" depart="2012.00" from="4fi" to="2o"/>
    <trip id="_13" depart="2013.00" from="1fi" to="1o"/>
    <trip id="_14" depart="2014.00" from="4fi" to="3o"/>
    <trip id="_15" depart="2015.00" from="4fi" to="3si"/>
    <trip id="_16" depart="2016.00" from="3fi" to="4o"/>
    <trip id="_17" depart="2017.00" from="2fi" to="3o"/>
    <trip id="_18" depart="2018.00" from="4fi" to="3o"/>
    <trip id="_19" depart="2019.00" from="4fi" to="3o"/>
    <trip id="_20" depart="2020.00" from="3fi" to="1o"/>
    <trip id="_21" depart="2021.00" from="1si" to="2o"/>
    <trip id="_22" depart="2022.00" from="1fi" to="1si"/>
    <trip id="_23" depart="2023.00" from="1fi" to="2o"/>
    <trip id="_24" depart="2024.00" from="3fi" to="2o"/>
    <trip id="_25" depart="2025.00" from="2fi" to="1o"/>
    <trip id="_26" depart="2026.00" from="2fi" to="4o"/>
    <trip id="_27" depart="2027.00" from="3fi" to="3o"/>
    <trip id="_28" depart="2028.00" from="1fi" to="3si"/>
    <trip id="_29" depart="2029.00" from="1fi" to="2o"/>
    <trip id="_30" depart="2030.00" from="4si" to="3o"/>
    <trip id="_31" depart="2031.00" from="3fi" to="3o"/>
    <trip id="_32" depart="2032.00" from="4fi" to="4o"/>
    <trip id="_33" depart="2033.00" from="1si" to="1o"/>
    <trip id="_34" depart="2034.00" from="2fi" to="2o"/>
    <trip id="_35" depart="2035.00" from="1fi" to="4o"/>
    <trip id="_36" depart="2036.00" from="4fi" to="2o"/>
    <trip id="_37" depart="2037.00" from="3fi" to="2o"/>
    <trip id="_38" depart="2038.00" from="4fi" to="2o"/>
    <trip id="_39" depart="2039.00" from="2fi" to="1si"/>
    <trip id="_40" depart="2040.00" from="3fi" to="2o"/>
    <trip id="_41" depart="2041.00" from="3fi" to="4o"/>
    <trip id="_42" depart="2042.00" from="2fi" to="1o"/>
    <trip id="_43" depart="2043.00" from="4si" to="3o"/>
    <trip id="_44" depart="2044.00" from="1fi" to="1o"/>
    <trip id="_45" depart="2045.00" from="1fi" to="3o"/>
    <trip id="_46" depart="2046.00" from="4fi" to="2o"/>
    <trip id="_47" depart="2047.00" from="1fi" to="2o"/>
    <trip id="_48" depart="2048.00" from="4si" to="3o"/>
    <trip id="_49" depart="2049.00" from="4fi" to="4o"/>
    <trip id="_50" depart="2050.00" from="1fi" to="3o"/>
    <trip id="_51" depart="2051.00" from="3fi" to="3o"/>
    <trip id="_52" depart="2052.00" from="2fi" to="3o"/>
    <trip id="_53" depart="2053.00" from="1fi" to="2o"/>
    <trip id="_54" depart="2054.00" from="2fi" to="4o"/>
    <trip id="_55" depart="2055.00" from="4fi" to="2o"/>
    <trip id="_56" depart="2056.00" from="3fi" to="1o"/>
    <trip id="_57" depart="2057.00" from="4fi" to="4o"/>
    <trip id="_58" depart="2058.00" from="2fi" to="3o"/>
    <trip id="_59" depart="2059.00" from="3fi" to="1o"/>
    <trip id="_60" depart="2060.00" from="4fi" to="3o"/>
    <trip id="_61" depart="2061.00" from="4fi" to="3o"/>
    <trip id="_62" depart="2062.00" from="1fi" to="2o"/>
    <trip id="_63" depart="2063.00" from="1fi" to="4o"/>
    <trip id="_64" depart="2064.00" from="4fi" to="4o"/>
    <trip id="_65" depart="2065.00" from="2fi" to="1o"/>
    <trip id="_66" depart="2066.00" from="4fi" to="4o"/>
    <trip id="_67" depart="2067.00" from="1fi" to="2si"/>
    <trip id="_68" depart="2068.00" from="1fi" to="4o"/>
    <trip id="_69" depart="2069.00" from="4fi" to="1o"/>
    <trip id="_70" depart="2070.00" from="2fi" to="3o"/>
    <trip id="_71" depart="2071.00" from="2fi" to="4o"/>
    <trip id="_72" depart="2072.00" from="2fi" to="1o"/>
    <trip id="_73" depart="2073.00" from="3fi" to="3si"/>
    <trip id="_74" depart="2074.00" from="1fi" to="2o"/>
    <trip id="_75" depart="2075.00" from="4si" to="3o"/>
    <trip id="_76" depart="2076.00" from="2fi" to="3o"/>
    <trip id="_77" depart="2077.00" from="1fi" to="1o"/>
    <trip id="_78" depart="2078.00" from="2fi" to="3o"/>
    <trip id="_79" depart="2079.00" from="1si" to="1o"/>
    <trip id="_80" depart="2080.00" from="1fi" to="3o"/>
    <trip id="_81" depart="2081.00" from="1si" to="4o"/>
    <trip id="_82" depart="2082.00" from="4fi" to="1o"/>
    <trip id="_83" depart="2083.00" from="1si" to="3o"/>
    <trip id="_84" depart="2084.00" from="1fi" to="1o"/>
    <trip id="_85" depart="2085.00" from="4fi" to="3o"/>
    <trip id="_86" depart="2086.00" from="2fi" to="4o"/>
    <trip id="_87" depart="2087.00" from="4fi" to="1o"/>
    <trip id="_88" depart="2088.00" from="1fi" to="2o"/>
    <trip id="_89" depart="2089.00" from="2fi" to="2o"/>
    <trip id="_90" depart="2090.00" from="3si" to="3o"/>
    <trip id="_91" depart="2091.00" from="4si" to="1o"/>
    <trip id="_92" depart="2092.00" from="2fi" to="2o"/>
    <trip id="_93" depart="2093.00" from="4fi" to="1si"/>
    <trip id="_94" depart="2094.00" from="1fi" to="2o"/>
    <trip id="_95" depart="2095.00" from="2fi" to="2o"/>
    <trip id="_96" depart="2096.00" from="1si" to="4o"/>
    <trip id="_97" depart="2097.00" from="2fi" to="4o"/>
    <trip id="_98" depart="2098.00" from="3fi" to="1o"/>
    <trip id="_99" depart="2099.00" from="4si" to="4o"/>
    <trip id="_100" depart="2100.00" from="4fi" to="4o"/>
    <trip id="_101" depart="2101.00" from="4fi" to="1o"/>
    <trip id="_102" depart="2102.00" from="2si" to="1o"/>
    <trip id="_103" depart="2103.00" from="2fi" to="1o"/>
    <trip id="_104" depart="2104.00" from="2fi" to="4si"/>
    <trip id="_105" depart="2105.00" from="2fi" to="4o"/>
    <trip id="_106" depart="2106.00" from="2fi" to="2o"/>
    <trip id="_107" depart="2107.00" from="4fi" to="4si"/>
    <trip id="_108" depart="2108.00" from="3fi" to="3o"/>
    <trip id="_109" depart="2109.00" from="1fi" to="2o"/>
    <trip id="_110" depart="2110.00" from="4fi" to="3o"/>
    <trip id="_111" depart="2111.00" from="3fi" to="3si"/>
    <trip id="_112" depart="2112.00" from="1fi" to="3o"/>
    <trip id="_113" depart="2113.00" from="3fi" to="4o"/>
    <trip id="_114" depart="2114.00" from="1fi" to="4o"/>
    <trip id="_115" depart="2115.00" from="1fi" to="1o"/>
    <trip id="_116" depart="2116.00" from="3fi" to="3o"/>
    <trip id="_117" depart="2117.00" from="1si" to="1o"/>
    <trip id="_118" depart="2118.00" from="4fi" to="1si"/>
    <trip id="_119" depart="2119.00" from="3fi" to="3o"/>
    <trip id="_120" depart="2120.00" from="2fi" to="3o"/>
    <trip id="_121" depart="2121.00" from="3fi" to="4o"/>
    <trip id="_122" depart="2122.00" from="1fi" to="3o"/>
    <trip id="_123" depart="2123.00" from="1si" to="2o"/>
    <trip id="_124" depart="2124.00" from="3fi" to="2o"/>
    <trip id="_125" depart="2125.00" from="2fi" to="4o"/>
    <trip id="_126" depart="2126.00" from="1fi" to="2o"/>
    <trip id="_127" depart="2127.00" from="4si" to="4si"/>
    <trip id="_128" depart="2128.00" from="1fi" to="1o"/>
    <trip id="_129" depart="2129.00" from="2fi" to="4o"/>
    <trip id="_130" depart="2130.00" from="4fi" to="4o"/>
    <trip id="_131" depart="2131.00" from="2fi" to="1o"/>
    <trip id="_132" depart="2132.00" from="4fi" to="3o"/>
    <trip id="_133" depart="2133.00" from="3fi" to="4si"/>
    <trip id="_134" depart="2134.00" from="3fi" to="1o"/>
    <trip id="_135" depart="2135.00" from="4fi" to="2o"/>
    <trip id="_136" depart="2136.00" from="3fi" to="4o"/>
    <trip id="_137" depart="2137.00" from="1fi" to="1o"/>
    <trip id="_138" depart="2138.00" from="1fi" to="3o"/>
    <trip id="_139" depart="2139.00" from="2fi" to="3o"/>
    <trip id="_140" depart="2140.00" from="3fi" to="1o"/>
    <trip id="_141" depart="2141.00" from="3fi" to="2o"/>
    <trip id="_142" depart="2142.00" from="2si" to="4o"/>
    <trip id="_143" depart="2143.00" from="4fi" to="1o"/>
    <trip id="_144" depart="2144.00" from="2fi" to="2o"/>
    <trip id="_145" depart="2145.00" from="1fi" to="4o"/>
    <trip id="_146" depart="2146.00" from="3fi" to="2o"/>
    <trip id="_147" depart="2147.00" from="3si" to="3o"/>
    <trip id="_148" depart="2148.00" from="2fi" to="1o"/>
    <trip id="_149" depart="2149.00" from="1fi" to="4o"/>
    <trip id="_150" depart="2150.00" from="4fi" to="3o"/>
    <trip id="_151" depart="2151.00" from="4fi" to="3o"/>
    <trip id="_152" depart="2152.00" from="1fi" to="1o"/>
    <trip id="_153" depart="2153.00" from="2fi" to="4o"/>
    <trip id="_154" depart="2154.00" from="4fi" to="4o"/>
    <trip id="_155" depart="2155.00" from="4fi" to="1o"/>
    <trip id="_156" depart="2156.00" from="1si" to="1o"/>
    <trip id="_157" depart="2157.00" from="4fi" to="4o"/>
    <trip id="_158" depart="2158.00" from="2fi" to="3o"/>
    <trip id="_159" depart="2159.00" from="1fi" to="4o"/>
    <trip id="_160" depart="2160.00" from="4fi" to="4o"/>
    <trip id="_161" depart="2161.00" from="4fi" to="4o"/>
    <trip id="_162" depart="2162.00" from="1fi" to="3si"/>
    <trip id="_163" depart="2163.00" from="2fi" to="4o"/>
    <trip id="_164" depart="2164.00" from="4fi" to="4o"/>
    <trip id="_165" depart="2165.00" from="4fi" to="2o"/>
    <trip id="_166" depart="2166.00" from="4fi" to="1o"/>
    <trip id="_167" depart="2167.00" from="4fi" to="4o"/>
    <trip id="_168" depart="2168.00" from="1fi" to="4o"/>
    <trip id="_169" depart="2169.00" from="2fi" to="2o"/>
    <trip id="_170" depart="2170.00" from="4fi" to="1si"/>
    <trip id="_171" depart="2171.00" from="1fi" to="1o"/>
    <trip id="_172" depart="2172.00" from="2fi" to="4o"/>
    <trip id="_173" depart="2173.00" from="4fi" to="2o"/>
    <trip id="_174" depart="2174.00" from="3fi" to="2o"/>
    <trip id="_175" depart="2175.00" from="4si" to="3o"/>
    <trip id="_176" depart="2176.00" from="4fi" to="1o"/>
    <trip id="_177" depart="2177.00" from="4fi" to="1o"/>
    <trip id="_178" depart="2178.00" from="4fi" to="2o"/>
    <trip id="_179" depart="2179.00" from="1fi" to="2o"/>
    <trip id="_180" depart="2180.00" from="3si" to="2o"/>
    <trip id="_181" depart="2181.00" from="3fi" to="3o"/>
    <trip id="_182" depart="2182.00" from="2fi" to="3o"/>
    <trip id="_183" depart="2183.00" from="2fi" to="3o"/>
    <trip id="_184" depart="2184.00" from="1fi" to="4o"/>
    <trip id="_185" depart="2185.00" from="3fi" to="3o"/>
    <trip id="_186" depart="2186.00" from="3si" to="3o"/>
    <trip id="_187" depart="2187.00" from="2fi" to="1o"/>
    <trip id="_188" depart="2188.00" from="3fi" to="2o"/>
    <trip id="_189" depart="2189.00" from="2fi" to="4o"/>
    <trip id="_190" depart="2190.00" from="3fi" to="2o"/>
    <trip id="_191" depart="2191.00" from="2fi" to="2o"/>
    <trip id="_192" depart="2192.00" from="2fi" to="2o"/>
    <trip id="_193" depart="2193.00" from="1fi" to="2o"/>
    <trip id="_194" depart="2194.00" from="4fi" to="3o"/>
    <trip id="_195" depart="2195.00" from="4fi" to="3o"/>
    <trip id="_196" depart="2196.00" from="2fi" to="3o"/>
    <trip id="_197" depart="2197.00" from="1fi" to="2o"/>
    <trip id="_198" depart="2198.00" from="2fi" to="3o"/>
    <trip id="_199" depart="2199.00" from="3fi" to="2o"/>
    <trip id="_200" depart="2200.00" from="2fi" to="1o"/>
    <trip id="_201" depart="2201.00" from="2fi" to="4o"/>
    <trip id="_202" depart="2202.00" from="4fi" to="1o"/>
    <trip id="_203" depart="2203.00" from="1fi" to="3o"/>
    <trip id="_204" depart="2204.00" from="3fi" to="2o"/>
    <trip id="_205" depart="2205.00" from="4fi" to="4o"/>
    <trip id="_206" depart="2206.00" from="3fi" to="1o"/>
    <trip id="_207" depart="2207.00" from="1fi" to="1o"/>
    <trip id="_208" depart="2208.00" from="1si" to="2o"/>
    <trip id="_209" depart="2209.00" from="4fi" to="1o"/>
    <trip id="_210" depart="2210.00" from="2fi" to="3o"/>
    <trip id="_211" depart="2211.00" from="1fi" to="3o"/>
    <trip id="_212" depart="2212.00" from="2si" to="1si"/>
    <trip id="_213" depart="2213.00" from="3fi" to="1o"/>
    <trip id="_214" depart="2214.00" from="4fi" to="4o"/>
    <trip id="_215" depart="2215.00" from="1fi" to="2o"/>
    <trip id="_216" depart="2216.00" from="1fi" to="4o"/>
    <trip id="_217" depart="2217.00" from="3fi" to="1o"/>
    <trip id="_218" depart="2218.00" from="1si" to="4o"/>
    <trip id="_219" depart="2219.00" from="2fi" to="4o"/>
    <trip id="_220" depart="2220.00" from="3fi" to="4si"/>
    <trip id="_221" depart="2221.00" from="3fi" to="4o"/>
    <trip id="_222" depart="2222.00" from="4fi" to="3o"/>
    <trip id="_223" depart="2223.00" from="3fi" to="3o"/>
    <trip id="_224" depart="2224.00" from="4fi" to="3o"/>
    <trip id="_225" depart="2225.00" from="4fi" to="3si"/>
    <trip id="_226" depart="2226.00" from="2fi" to="2o"/>
    <trip id="_227" depart="2227.00" from="1si" to="3o"/>
    <trip id="_228" depart="2228.00" from="4fi" to="3o"/>
    <trip id="_229" depart="2229.00" from="3fi" to="2o"/>
    <trip id="_230" depart="2230.00" from="1fi" to="2o"/>
    <trip id="_231" depart="2231.00" from="2fi" to="2o"/>
    <trip id="_232" depart="2232.00" from="3fi" to="1o"/>
    <trip id="_233" depart="2233.00" from="1si" to="3o"/>
    <trip id="_234" depart="2234.00" from="3fi" to="1o"/>
    <trip id="_235" depart="2235.00" from="2fi" to="3o"/>
    <trip id="_236" depart="2236.00" from="2fi" to="1o"/>
    <trip id="_237" depart="2237.00" from="2fi" to="4o"/>
    <trip id="_238" depart="2238.00" from="3fi" to="3o"/>
    <trip id="_239" depart="2239.00" from="4fi" to="4o"/>
    <trip id="_240" depart="2240.00" from="2fi" to="1o"/>
    <trip id="_241" depart="2241.00" from="2fi" to="4o"/>
    <trip id="_242" depart="2242.00" from="4fi" to="4o"/>
    <trip id="_243" depart="2243.00" from="2fi" to="3si"/>
    <trip id="_244" depart="2244.00" from="3fi" to="3o"/>
    <trip id="_245" depart="2245.00" from="1fi" to="1o"/>
    <trip id="_246" depart="2246.00" from="2fi" to="1o"/>
    <trip id="_247" depart="2247.00" from="2fi" to="3o"/>
    <trip id="_248" depart="2248.00" from="2fi" to="1o"/>
    <trip id="_249" depart="2249.00" from="2fi" to="1o"/>
    <trip id="_250" depart="2250.00" from="3fi" to="1o"/>
    <trip id="_251" depart="2251.00" from="2fi" to="3o"/>
    <trip id="_252" depart="2252.00" from="1fi" to="3o"/>
    <trip id="_253" depart="2253.00" from="1fi" to="2o"/>
    <trip id="_254" depart="2254.00" from="1fi" to="2o"/>
    <trip id="_255" depart="2255.00" from="1fi" to="2o"/>
    <trip id="_256" depart="2256.00" from="4fi" to="2o"/>
    <trip id="_257" depart="2257.00" from="4fi" to="4o"/>
    <trip id="_258" depart="2258.00" from="2fi" to="1o"/>
    <trip id="_259" depart="2259.00" from="1fi" to="3o"/>
    <trip id="_260" depart="2260.00" from="4si" to="2o"/>
    <trip id="_261" depart="2261.00" from="3fi" to="4o"/>
    <trip id="_262" depart="2262.00" from="3fi" to="4o"/>
    <trip id="_263" depart="2263.00" from="4fi" to="1o"/>
    <trip id="_264" depart="2264.00" from="1fi" to="1o"/>
    <trip id="_265" depart="2265.00" from="1fi" to="3o"/>
    <trip id="_266" depart="2266.00" from="3fi" to="1o"/>
    <trip id="_267" depart="2267.00" from="3fi" to="4o"/>
    <trip id="_268" depart="2268.00" from="1fi" to="3o"/>
    <trip id="_269" depart="2269.00" from="3si" to="1o"/>
    <trip id="_270" depart="2270.00" from="4fi" to="4o"/>
    <trip id="_271" depart="2271.00" from="1fi" to="1o"/>
    <trip id="_272" depart="2272.00" from="2fi" to="3o"/>
    <trip id="_273" depart="2273.00" from="4fi" to="2o"/>
    <trip id="_274" depart="2274.00" from="3fi" to="1o"/>
    <trip id="_275" depart="2275.00" from="3fi" to="3o"/>
    <trip id="_276" depart="2276.00" from="1fi" to="4o"/>
    <trip id="_277" depart="2277.00" from="4fi" to="3o"/>
    <trip id="_278" depart="2278.00" from="1fi" to="4si"/>
    <trip id="_279" depart="2279.00" from="4fi" to="2o"/>
    <trip id="_280" depart="2280.00" from="2fi" to="2o"/>
    <trip id="_281" depart="2281.00" from="3fi" to="2o"/>
    <trip id="_282" depart="2282.00" from="4fi" to="4o"/>
    <trip id="_283" depart="2283.00" from="1fi" to="4o"/>
    <trip id="_284" depart="2284.00" from="3fi" to="4o"/>
    <trip id="_285" depart="2285.00" from="3fi" to="2o"/>
    <trip id="_286" depart="2286.00" from="3si" to="4o"/>
    <trip id="_287" depart="2287.00" from="2fi" to="4o"/>
    <trip id="_288" depart="2288.00" from="3fi" to="2si"/>
    <trip id="_289" depart="2289.00" from="2fi" to="3si"/>
    <trip id="_290" depart="2290.00" from="2fi" to="4o"/>
    <trip id="_291" depart="2291.00" from="4fi" to="1o"/>
    <trip id="_292" depart="2292.00" from="4fi" to="1si"/>
    <trip id="_293" depart="2293.00" from="2fi" to="3o"/>
    <trip id="_294" depart="2294.00" from="2fi" to="1o"/>
    <trip id="_295" depart="2295.00" from="4fi" to="1o"/>
    <trip id="_296" depart="2296.00" from="1fi" to="4o"/>
    <trip id="_297" depart="2297.00" from="2fi" to="4o"/>
    <trip id="_298" depart="2298.00" from="3fi" to="2o"/>
    <trip id="_299" depart="2299.00" from="1fi" to="4o"/>
    <trip id="_300" depart="2300.00" from="1fi" to="3o"/>
    <trip id="_301" depart="2301.00" from="2si" to="4o"/>
    <trip id="_302" depart="2302.00" from="3fi" to="3o"/>
    <trip id="_303" depart="2303.00" from="2si" to="4o"/>
    <trip id="_304" depart="2304.00" from="1fi" to="1o"/>
    <trip id="_305" depart="2305.00" from="3fi" to="2o"/>
    <trip id="_306" depart="2306.00" from="3fi" to="2o"/>
    <trip id="_307" depart="2307.00" from="3fi" to="2o"/>
    <trip id="_308" depart="2308.00" from="3si" to="2o"/>
    <trip id="_309" depart="2309.00" from="3fi" to="2o"/>
    <trip id="_310" depart="2310.00" from="2fi" to="1o"/>
    <trip id="_311" depart="2311.00" from="1fi" to="1o"/>
    <trip id="_312" depart="2312.00" from="3fi" to="4o"/>
    <trip id="_313" depart="2313.00" from="1fi" to="1o"/>
    <trip id="_314" depart="2314.00" from="2si" to="3o"/>
    <trip id="_315" depart="2315.00" from="4fi" to="3o"/>
    <trip id="_316" depart="2316.00" from="2fi" to="1o"/>
    <trip id="_317" depart="2317.00" from="1fi" to="1si"/>
    <trip id="_318" depart="2318.00" from="1fi" to="1o"/>
    <trip id="_319" depart="2319.00" from="3fi" to="2o"/>
    <trip id="_320" depart="2320.00" from="4fi" to="3o"/>
    <trip id="_321" depart="2321.00" from="3fi" to="1o"/>
    <trip id="_322" depart="2322.00" from="4fi" to="2si"/>
    <trip id="_323" depart="2323.00" from="4fi" to="3o"/>
    <trip id="_324" depart="2324.00" from="2fi" to="2o"/>
    <trip id="_325" depart="2325.00" from="1fi" to="1o"/>
    <trip id="_326" depart="2326.00" from="4fi" to="2si"/>
    <trip id="_327" depart="2327.00" from="4fi" to="2o"/>
    <trip id="_328" depart="2328.00" from="1fi" to="3o"/>
    <trip id="_329" depart="2329.00" from="1fi" to="1o"/>
    <trip id="_330" depart="2330.00" from="3fi" to="2o"/>
    <trip id="_331" depart="2331.00" from="4si" to="1o"/>
    <trip id="_332" depart="2332.00" from="4fi" to="3o"/>
    <trip id="_333" depart="2333.00" from="4fi" to="1o"/>
    <trip id="_334" depart="2334.00" from="3fi" to="2o"/>
    <trip id="_335" depart="2335.00" from="2fi" to="4o"/>
    <trip id="_336" depart="2336.00" from="4si" to="2o"/>
    <trip id="_337" depart="2337.00" from="3fi" to="3o"/>
    <trip id="_338" depart="2338.00" from="3si" to="4o"/>
    <trip id="_339" depart="2339.00" from="1fi" to="1o"/>
    <trip id="_340" depart="2340.00" from="3fi" to="1o"/>
    <trip id="_341" depart="2341.00" from="1fi" to="1o"/>
    <trip id="_342" depart="2342.00" from="1fi" to="2o"/>
    <trip id="_343" depart="2343.00" from="3fi" to="2o"/>
    <trip id="_344" depart="2344.00" from="1si" to="3o"/>
    <trip id="_345" depart="2345.00" from="3fi" to="2o"/>
    <trip id="_346" depart="2346.00" from="3fi" to="4o"/>
    <trip id="_347" depart="2347.00" from="4fi" to="3o"/>
    <trip id="_348" depart="2348.00" from="3fi" to="4o"/>
    <trip id="_349" depart="2349.00" from="2fi" to="3o"/>
    <trip id="_350" depart="2350.00" from="3fi" to="4o"/>
    <trip id="_351" depart="2351.00" from="4fi" to="1o"/>
    <trip id="_352" depart="2352.00" from="1fi" to="2o"/>
    <trip id="_353" depart="2353.00" from="3si" to="3o"/>
    <trip id="_354" depart="2354.00" from="2fi" to="1o"/>
    <trip id="_355" depart="2355.00" from="3fi" to="3o"/>
    <trip id="_356" depart="2356.00" from="4fi" to="3o"/>
    <trip id="_357" depart="2357.00" from="2si" to="1o"/>
    <trip id="_358" depart="2358.00" from="1fi" to="2o"/>
    <trip id="_359" depart="2359.00" from="2fi" to="2o"/>
    <trip id="_360" depart="2360.00" from="1fi" to="4o"/>
    <trip id="_361" depart="2361.00" from="4fi" to="3o"/>
    <trip id="_362" depart="2362.00" from="4fi" to="4si"/>
    <trip id="_363" depart="2363.00" from="3fi" to="2o"/>
    <trip id="_364" depart="2364.00" from="1fi" to="4o"/>
    <trip id="_365" depart="2365.00" from="2fi" to="3o"/>
    <trip id="_366" depart="2366.00" from="4fi" to="1o"/>
    <trip id="_367" depart="2367.00" from="3fi" to="3o"/>
    <trip id="_368" depart="2368.00" from="2si" to="1o"/>
    <trip id="_369" depart="2369.00" from="2fi" to="2o"/>
    <trip id="_370" depart="2370.00" from="3fi" to="4o"/>
    <trip id="_371" depart="2371.00" from="2fi" to="3o"/>
    <trip id="_372" depart="2372.00" from="2fi" to="4o"/>
    <trip id="_373" depart="2373.00" from="4fi" to="3o"/>
    <trip id="_374" depart="2374.00" from="2fi" to="2o"/>
    <trip id="_375" depart="2375.00" from="2fi" to="4o"/>
    <trip id="_376" depart="2376.00" from="2fi" to="3o"/>
    <trip id="_377" depart="2377.00" from="4si" to="3o"/>
    <trip id="_378" depart="2378.00" from="3fi" to="2o"/>
    <trip id="_379" depart="2379.00" from="1fi" to="2o"/>
    <trip id="_380" depart="2380.00" from="4fi" to="3o"/>
    <trip id="_381" depart="2381.00" from="4fi" to="1o"/>
    <trip id="_382" depart="2382.00" from="3fi" to="4o"/>
    <trip id="_383" depart="2383.00" from="2fi" to="3o"/>
    <trip id="_384" depart="2384.00" from="1fi" to="4o"/>
    <trip id="_385" depart="2385.00" from="3fi" to="1si"/>
    <trip id="_386" depart="2386.00" from="1fi" to="3o"/>
    <trip id="_387" depart="2387.00" from="3fi" to="1o"/>
    <trip id="_388" depart="2388.00" from="4si" to="4o"/>
    <trip id="_389" depart="2389.00" from="2fi" to="1o"/>
    <trip id="_390" depart="2390.00" from="4fi" to="2si"/>
    <trip id="_391" depart="2391.00" from="3fi" to="3o"/>
    <trip id="_392" depart="2392.00" from="2fi" to="4o"/>
    <trip id="_393" depart="2393.00" from="4si" to="1si"/>
    <trip id="_394" depart="2394.00" from="3fi" to="2o"/>
    <trip id="_395" depart="2395.00" from="4fi" to="3o"/>
    <trip id="_396" depart="2396.00" from="4fi" to="4o"/>
    <trip id="_397" depart="2397.00" from="2fi" to="4o"/>
    <trip id="_398" depart="2398.00" from="2fi" to="4o"/>
    <trip id="_399" depart="2399.00" from="3fi" to="4o"/>
    <trip id="_400" depart="2400.00" from="2fi" to="2o"/>
    <trip id="_401" depart="2401.00" from="3fi" to="4si"/>
    <trip id="_402" depart="2402.00" from="2si" to="1o"/>
    <trip id="_403" depart="2403.00" from="3fi" to="2o"/>
    <trip id="_404" depart="2404.00" from="3fi" to="3o"/>
    <trip id="_405" depart="2405.00" from="2fi" to="2o"/>
    <trip id="_406" depart="2406.00" from="1fi" to="3o"/>
    <trip id="_407" depart="2407.00" from="3fi" to="1si"/>
    <trip id="_408" depart="2408.00" from="4fi" to="1o"/>
    <trip id="_409" depart="2409.00" from="3si" to="3o"/>
    <trip id="_410" depart="2410.00" from="4fi" to="2o"/>
    <trip id="_411" depart="2411.00" from="3fi" to="4o"/>
    <trip id="_412" depart="2412.00" from="4si" to="2si"/>
    <trip id="_413" depart="2413.00" from="1fi" to="3o"/>
    <trip id="_414" depart="2414.00" from="3fi" to="4o"/>
    <trip id="_415" depart="2415.00" from="4fi" to="2o"/>
    <trip id="_416" depart="2416.00" from="3fi" to="2o"/>
    <trip id="_417" depart="2417.00" from="3fi" to="2o"/>
    <trip id="_418" depart="2418.00" from="3fi" to="1o"/>
    <trip id="_419" depart="2419.00" from="2fi" to="4o"/>
    <trip id="_420" depart="2420.00" from="2fi" to="3o"/>
    <trip id="_421" depart="2421.00" from="3fi" to="4o"/>
    <trip id="_422" depart="2422.00" from="4fi" to="4o"/>
    <trip id="_423" depart="2423.00" from="2fi" to="2o"/>
    <trip id="_424" depart="2424.00" from="3fi" to="4o"/>
    <trip id="_425" depart="2425.00" from="4fi" to="1o"/>
    <trip id="_426" depart="2426.00" from="1fi" to="3o"/>
    <trip id="_427" depart="2427.00" from="4fi" to="4si"/>
    <trip id="_428" depart="2428.00" from="3si" to="2o"/>
    <trip id="_429" depart="2429.00" from="1fi" to="3o"/>
    <trip id="_430" depart="2430.00" from="4fi" to="2o"/>
    <trip id="_431" depart="2431.00" from="3fi" to="4o"/>
    <trip id="_432" depart="2432.00" from="1fi" to="4o"/>
    <trip id="_433" depart="2433.00" from="2fi" to="2o"/>
    <trip id="_434" depart="2434.00" from="1fi" to="3o"/>
    <trip id="_435" depart="2435.00" from="3fi" to="4o"/>
    <trip id="_436" depart="2436.00" from="1fi" to="1o"/>
    <trip id="_437" depart="2437.00" from="4fi" to="3o"/>
    <trip id="_438" depart="2438.00" from="1si" to="4o"/>
    <trip id="_439" depart="2439.00" from="1fi" to="2o"/>
    <trip id="_440" depart="2440.00" from="2fi" to="2o"/>
    <trip id="_441" depart="2441.00" from="1fi" to="4o"/>
    <trip id="_442" depart="2442.00" from="4fi" to="3o"/>
    <trip id="_443" depart="2443.00" from="1fi" to="2o"/>
    <trip id="_444" depart="2444.00" from="2fi" to="3o"/>
    <trip id="_445" depart="2445.00" from="3fi" to="2o"/>
    <trip id="_446" depart="2446.00" from="2fi" to="4o"/>
    <trip id="_447" depart="2447.00" from="1fi" to="2o"/>
    <trip id="_448" depart="2448.00" from="2si" to="1si"/>
    <trip id="_449" depart="2449.00" from="3fi" to="3o"/>
    <trip id="_450" depart="2450.00" from="4si" to="2o"/>
    <trip id="_451" depart="2451.00" from="4si" to="3o"/>
    <trip id="_452" depart="2452.00" from="2fi" to="3o"/>
    <trip id="_453" depart="2453.00" from="3fi" to="3si"/>
    <trip id="_454" depart="2454.00" from="1fi" to="3o"/>
    <trip id="_455" depart="2455.00" from="2si" to="4o"/>
    <trip id="_456" depart="2456.00" from="2fi" to="4o"/>
    <trip id="_457" depart="2457.00" from="3fi" to="2o"/>
    <trip id="_458" depart="2458.00" from="3fi" to="3o"/>
    <trip id="_459" depart="2459.00" from="3fi" to="3o"/>
    <trip id="_460" depart="2460.00" from="3fi" to="4o"/>
    <trip id="_461" depart="2461.00" from="3fi" to="4o"/>
    <trip id="_462" depart="2462.00" from="3fi" to="2o"/>
    <trip id="_463" depart="2463.00" from="2fi" to="3o"/>
    <trip id="_464" depart="2464.00" from="3si" to="1o"/>
    <trip id="_465" depart="2465.00" from="2fi" to="3si"/>
    <trip id="_466" depart="2466.00" from="1fi" to="1o"/>
    <trip id="_467" depart="2467.00" from="3fi" to="4o"/>
    <trip id="_468" depart="2468.00" from="3fi" to="4o"/>
    <trip id="_469" depart="2469.00" from="4fi" to="2o"/>
    <trip id="_470" depart="2470.00" from="4fi" to="2si"/>
    <trip id="_471" depart="2471.00" from="4fi" to="3si"/>
    <trip id="_472" depart="2472.00" from="2fi" to="1o"/>
    <trip id="_473" depart="2473.00" from="4fi" to="1o"/>
    <trip id="_474" depart="2474.00" from="4fi" to="4o"/>
    <trip id="_475" depart="2475.00" from="3fi" to="4si"/>
    <trip id="_476" depart="2476.00" from="4fi" to="4o"/>
    <trip id="_477" depart="2477.00" from="2fi" to="4o"/>
    <trip id="_478" depart="2478.00" from="1fi" to="3o"/>
    <trip id="_479" depart="2479.00" from="2fi" to="3o"/>
    <trip id="_480" depart="2480.00" from="3fi" to="3o"/>
    <trip id="_481" depart="2481.00" from="4fi" to="4o"/>
    <trip id="_482" depart="2482.00" from="1fi" to="1si"/>
    <trip id="_483" depart="2483.00" from="1fi" to="4o"/>
    <trip id="_484" depart="2484.00" from="3fi" to="4o"/>
    <trip id="_485" depart="2485.00" from="1fi" to="1o"/>
    <trip id="_486" depart="2486.00" from="4fi" to="4o"/>
    <trip id="_487" depart="2487.00" from="2fi" to="2o"/>
    <trip id="_488" depart="2488.00" from="1fi" to="4o"/>
    <trip id="_489" depart="2489.00" from="2fi" to="2si"/>
    <trip id="_490" depart="2490.00" from="1fi" to="4o"/>
    <trip id="_491" depart="2491.00" from="1fi" to="2o"/>
    <trip id="_492" depart="2492.00" from="3fi" to="3si"/>
    <trip id="_493" depart="2493.00" from="4fi" to="2o"/>
    <trip id="_494" depart="2494.00" from="3si" to="1o"/>
    <trip id="_495" depart="2495.00" from="2fi" to="1o"/>
    <trip id="_496" depart="2496.00" from="2si" to="2o"/>
    <trip id="_497" depart="2497.00" from="4fi" to="1o"/>
    <trip id="_498" depart="2498.00" from="2fi" to="2o"/>
    <trip id="_499" depart="2499.00" from="4fi" to="4o"/>
    <trip id="_500" depart="2500.00" from="1fi" to="3o"/>
    <trip id="_501" depart="2501.00" from="3fi" to="4si"/>
    <trip id="_502" depart="2502.00" from="2fi" to="2o"/>
    <trip id="_503" depart="2503.00" from="1fi" to="1o"/>
    <trip id="_504" depart="2504.00" from="4fi" to="2o"/>
    <trip id="_505" depart="2505.00" from="3fi" to="3o"/>
    <trip id="_506" depart="2506.00" from="3fi" to="1o"/>