<?xml version="1.0" encoding="UTF-8"?>

<!-- generated on 2025-06-12 00:03:07 by Eclipse SUMO netedit Version 1.21.0
<neteditConfiguration xmlns:xsi="http://www.w3.org/2001/XMLSchema-instance" xsi:noNamespaceSchemaLocation="http://sumo.dlr.de/xsd/neteditConfiguration.xsd">

    <input>
        <sumocfg-file value="C:\Users\Jopa\Desktop\FER  Materijali\Diplomski rad\kod\GP-traffic-lights\networks\2_identical_intersections\test.sumocfg"/>
        <additional-files value="C:\Users\Jopa\Desktop\FER  Materijali\Diplomski rad\kod\GP-traffic-lights\networks\2_identical_intersections\detectors.add.xml"/>
        <route-files value="C:\Users\Jopa\Desktop\FER  Materijali\Diplomski rad\kod\GP-traffic-lights\networks\2_identical_intersections\input_routes.rou.xml"/>
        <sumo-net-file value="C:\Users\Jopa\Desktop\FER  Materijali\Diplomski rad\kod\GP-traffic-lights\networks\2_identical_intersections\net.net.xml"/>
    </input>

    <output>
        <output-file value="C:\Users\Jopa\Desktop\FER  Materijali\Diplomski rad\kod\GP-traffic-lights\networks\2_identical_intersections\net.net.xml"/>
    </output>

    <processing>
        <geometry.min-radius.fix.railways value="false"/>
        <geometry.max-grade.fix value="false"/>
        <offset.disable-normalization value="true"/>
        <lefthand value="0"/>
    </processing>

    <junctions>
        <no-turnarounds value="true"/>
        <junctions.corner-detail value="0"/>
        <junctions.limit-turn-speed value="-1.00"/>
        <rectangular-lane-cut value="0"/>
    </junctions>

    <pedestrian>
        <walkingareas value="0"/>
    </pedestrian>

    <netedit>
        <ignore.routeelements value="false"/>
    </netedit>

</neteditConfiguration>
-->

<net version="1.20" xmlns:xsi="http://www.w3.org/2001/XMLSchema-instance" xsi:noNamespaceSchemaLocation="http://sumo.dlr.de/xsd/net_file.xsd">

    <location netOffset="500.00,500.00" convBoundary="0.00,0.00,1800.00,1000.00" origBoundary="-500.00,-500.00,500.00,500.00" projParameter="!"/>

    <edge id=":0_0" function="internal">
        <lane id=":0_0_0" index="0" speed="12.50" length="14.57" shape="492.00,513.60 491.65,508.35 490.60,504.60 488.85,502.35 486.40,501.60"/>
    </edge>
    <edge id=":0_1" function="internal">
        <lane id=":0_1_0" index="0" speed="12.50" length="27.42" shape="495.20,513.60 495.70,504.28 496.80,496.74 497.90,490.83 498.40,486.40"/>
    </edge>
    <edge id=":0_2" function="internal">
        <lane id=":0_2_0" index="0" speed="12.50" length="8.26" shape="498.40,513.60 499.35,506.95 500.15,505.62"/>
    </edge>
    <edge id=":0_12" function="internal">
        <lane id=":0_12_0" index="0" speed="12.50" length="16.25" shape="500.15,505.62 502.20,502.20 506.95,499.35 513.60,498.40"/>
    </edge>
    <edge id=":0_3" function="internal">
        <lane id=":0_3_0" index="0" speed="12.50" length="14.57" shape="513.60,508.00 508.35,508.35 504.60,509.40 502.35,511.15 501.60,513.60"/>
    </edge>
    <edge id=":0_4" function="internal">
        <lane id=":0_4_0" index="0" speed="12.50" length="27.42" shape="513.60,504.80 504.28,504.30 496.74,503.20 490.83,502.10 486.40,501.60"/>
    </edge>
    <edge id=":0_5" function="internal">
        <lane id=":0_5_0" index="0" speed="12.50" length="8.26" shape="513.60,501.60 506.95,500.65 505.62,499.85"/>
    </edge>
    <edge id=":0_13" function="internal">
        <lane id=":0_13_0" index="0" speed="12.50" length="16.25" shape="505.62,499.85 502.20,497.80 499.35,493.05 498.40,486.40"/>
    </edge>
    <edge id=":0_6" function="internal">
        <lane id=":0_6_0" index="0" speed="12.50" length="14.57" shape="508.00,486.40 508.35,491.65 509.40,495.40 511.15,497.65 513.60,498.40"/>
    </edge>
    <edge id=":0_7" function="internal">
        <lane id=":0_7_0" index="0" speed="12.50" length="27.42" shape="504.80,486.40 504.30,495.72 503.20,503.26 502.10,509.17 501.60,513.60"/>
    </edge>
    <edge id=":0_8" function="internal">
        <lane id=":0_8_0" index="0" speed="12.50" length="8.26" shape="501.60,486.40 500.65,493.05 499.85,494.38"/>
    </edge>
    <edge id=":0_14" function="internal">
        <lane id=":0_14_0" index="0" speed="12.50" length="16.25" shape="499.85,494.38 497.80,497.80 493.05,500.65 486.40,501.60"/>
    </edge>
    <edge id=":0_9" function="internal">
        <lane id=":0_9_0" index="0" speed="12.50" length="14.57" shape="486.40,492.00 491.65,491.65 495.40,490.60 497.65,488.85 498.40,486.40"/>
    </edge>
    <edge id=":0_10" function="internal">
        <lane id=":0_10_0" index="0" speed="12.50" length="27.42" shape="486.40,495.20 495.72,495.70 503.26,496.80 509.17,497.90 513.60,498.40"/>
    </edge>
    <edge id=":0_11" function="internal">
        <lane id=":0_11_0" index="0" speed="12.50" length="8.26" shape="486.40,498.40 493.05,499.35 494.38,500.15"/>
    </edge>
    <edge id=":0_15" function="internal">
        <lane id=":0_15_0" index="0" speed="12.50" length="16.25" shape="494.38,500.15 497.80,502.20 500.65,506.95 501.60,513.60"/>
    </edge>
    <edge id=":1_0" function="internal">
        <lane id=":1_0_0" index="0" speed="13.89" length="14.57" shape="1292.00,513.60 1291.65,508.35 1290.60,504.60 1288.85,502.35 1286.40,501.60"/>
    </edge>
    <edge id=":1_1" function="internal">
        <lane id=":1_1_0" index="0" speed="13.89" length="27.42" shape="1295.20,513.60 1295.70,504.28 1296.80,496.74 1297.90,490.83 1298.40,486.40"/>
    </edge>
    <edge id=":1_2" function="internal">
        <lane id=":1_2_0" index="0" speed="13.89" length="8.26" shape="1298.40,513.60 1299.35,506.95 1300.15,505.62"/>
    </edge>
    <edge id=":1_12" function="internal">
        <lane id=":1_12_0" index="0" speed="13.89" length="16.25" shape="1300.15,505.62 1302.20,502.20 1306.95,499.35 1313.60,498.40"/>
    </edge>
    <edge id=":1_3" function="internal">
        <lane id=":1_3_0" index="0" speed="13.89" length="14.57" shape="1313.60,508.00 1308.35,508.35 1304.60,509.40 1302.35,511.15 1301.60,513.60"/>
    </edge>
    <edge id=":1_4" function="internal">
        <lane id=":1_4_0" index="0" speed="13.89" length="27.42" shape="1313.60,504.80 1304.28,504.30 1296.74,503.20 1290.83,502.10 1286.40,501.60"/>
    </edge>
    <edge id=":1_5" function="internal">
        <lane id=":1_5_0" index="0" speed="13.89" length="8.26" shape="1313.60,501.60 1306.95,500.65 1305.62,499.85"/>
    </edge>
    <edge id=":1_13" function="internal">
        <lane id=":1_13_0" index="0" speed="13.89" length="16.25" shape="1305.62,499.85 1302.20,497.80 1299.35,493.05 1298.40,486.40"/>
    </edge>
    <edge id=":1_6" function="internal">
        <lane id=":1_6_0" index="0" speed="13.89" length="14.57" shape="1308.00,486.40 1308.35,491.65 1309.40,495.40 1311.15,497.65 1313.60,498.40"/>
    </edge>
    <edge id=":1_7" function="internal">
        <lane id=":1_7_0" index="0" speed="13.89" length="27.42" shape="1304.80,486.40 1304.30,495.72 1303.20,503.26 1302.10,509.17 1301.60,513.60"/>
    </edge>
    <edge id=":1_8" function="internal">
        <lane id=":1_8_0" index="0" speed="13.89" length="8.26" shape="1301.60,486.40 1300.65,493.05 1299.85,494.38"/>
    </edge>
    <edge id=":1_14" function="internal">
        <lane id=":1_14_0" index="0" speed="13.89" length="16.25" shape="1299.85,494.38 1297.80,497.80 1293.05,500.65 1286.40,501.60"/>
    </edge>
    <edge id=":1_9" function="internal">
        <lane id=":1_9_0" index="0" speed="13.89" length="14.57" shape="1286.40,492.00 1291.65,491.65 1295.40,490.60 1297.65,488.85 1298.40,486.40"/>
    </edge>
    <edge id=":1_10" function="internal">
        <lane id=":1_10_0" index="0" speed="13.89" length="27.42" shape="1286.40,495.20 1295.72,495.70 1303.26,496.80 1309.17,497.90 1313.60,498.40"/>
    </edge>
    <edge id=":1_11" function="internal">
        <lane id=":1_11_0" index="0" speed="13.89" length="8.26" shape="1286.40,498.40 1293.05,499.35 1294.38,500.15"/>
    </edge>
    <edge id=":1_15" function="internal">
        <lane id=":1_15_0" index="0" speed="13.89" length="16.25" shape="1294.38,500.15 1297.80,502.20 1300.65,506.95 1301.60,513.60"/>
    </edge>
    <edge id=":J2_0" function="internal">
        <lane id=":J2_0_0" index="0" speed="13.89" length="8.00" shape="1298.40,204.00 1298.40,196.00"/>
    </edge>
    <edge id=":J2_1" function="internal">
        <lane id=":J2_1_0" index="0" speed="13.89" length="9.22" shape="1301.60,196.00 1302.60,198.64 1304.80,199.95 1307.00,201.29 1308.00,204.00"/>
        <lane id=":J2_1_1" index="1" speed="13.89" length="9.22" shape="1301.60,196.00 1302.10,198.46 1303.20,200.00 1304.30,201.54 1304.80,204.00"/>
        <lane id=":J2_1_2" index="2" speed="13.89" length="9.22" shape="1301.60,196.00 1301.60,204.00"/>
    </edge>
    <edge id=":J3_0" function="internal">
        <lane id=":J3_0_0" index="0" speed="13.89" length="9.22" shape="1604.00,501.60 1601.36,502.60 1600.05,504.80 1598.71,507.00 1596.00,508.00"/>
        <lane id=":J3_0_1" index="1" speed="13.89" length="9.22" shape="1604.00,501.60 1601.54,502.10 1600.00,503.20 1598.46,504.30 1596.00,504.80"/>
        <lane id=":J3_0_2" index="2" speed="13.89" length="9.22" shape="1604.00,501.60 1596.00,501.60"/>
    </edge>
    <edge id=":J3_3" function="internal">
        <lane id=":J3_3_0" index="0" speed="13.89" length="8.00" shape="1596.00,498.40 1604.00,498.40"/>
    </edge>
    <edge id=":J4_0" function="internal">
        <lane id=":J4_0_0" index="0" speed="13.89" length="9.22" shape="1298.40,804.00 1297.40,801.36 1295.20,800.05 1293.00,798.71 1292.00,796.00"/>
        <lane id=":J4_0_1" index="1" speed="13.89" length="9.22" shape="1298.40,804.00 1297.90,801.54 1296.80,800.00 1295.70,798.46 1295.20,796.00"/>
        <lane id=":J4_0_2" index="2" speed="13.89" length="9.22" shape="1298.40,804.00 1298.40,796.00"/>
    </edge>
    <edge id=":J4_3" function="internal">
        <lane id=":J4_3_0" index="0" speed="13.89" length="8.00" shape="1301.60,796.00 1301.60,804.00"/>
    </edge>
    <edge id=":m1_0" function="internal">
        <lane id=":m1_0_0" index="0" speed="12.50" length="9.22" shape="246.00,498.40 248.64,497.40 249.95,495.20 251.29,493.00 254.00,492.00"/>
        <lane id=":m1_0_1" index="1" speed="12.50" length="9.22" shape="246.00,498.40 248.46,497.90 250.00,496.80 251.54,495.70 254.00,495.20"/>
        <lane id=":m1_0_2" index="2" speed="12.50" length="9.22" shape="246.00,498.40 254.00,498.40"/>
    </edge>
    <edge id=":m2_0" function="internal">
        <lane id=":m2_0_0" index="0" speed="12.50" length="9.22" shape="754.00,501.60 751.36,502.60 750.05,504.80 748.71,507.00 746.00,508.00"/>
        <lane id=":m2_0_1" index="1" speed="12.50" length="9.22" shape="754.00,501.60 751.54,502.10 750.00,503.20 748.46,504.30 746.00,504.80"/>
        <lane id=":m2_0_2" index="2" speed="12.50" length="9.22" shape="754.00,501.60 746.00,501.60"/>
    </edge>
    <edge id=":m3_0" function="internal">
        <lane id=":m3_0_0" index="0" speed="12.50" length="9.22" shape="501.60,246.00 502.60,248.64 504.80,249.95 507.00,251.29 508.00,254.00"/>
        <lane id=":m3_0_1" index="1" speed="12.50" length="9.22" shape="501.60,246.00 502.10,248.46 503.20,250.00 504.30,251.54 504.80,254.00"/>
        <lane id=":m3_0_2" index="2" speed="12.50" length="9.22" shape="501.60,246.00 501.60,254.00"/>
    </edge>
    <edge id=":m4_0" function="internal">
        <lane id=":m4_0_0" index="0" speed="12.50" length="9.22" shape="498.40,754.00 497.40,751.36 495.20,750.05 493.00,748.71 492.00,746.00"/>
        <lane id=":m4_0_1" index="1" speed="12.50" length="9.22" shape="498.40,754.00 497.90,751.54 496.80,750.00 495.70,748.46 495.20,746.00"/>
        <lane id=":m4_0_2" index="2" speed="12.50" length="9.22" shape="498.40,754.00 498.40,746.00"/>
    </edge>
    <edge id=":o2_0" function="internal">
        <lane id=":o2_0_0" index="0" speed="12.50" length="8.00" shape="1004.00,501.60 996.00,501.60"/>
    </edge>
    <edge id=":o2_1" function="internal">
        <lane id=":o2_1_0" index="0" speed="12.50" length="9.22" shape="996.00,498.40 998.64,497.40 999.95,495.20 1001.29,493.00 1004.00,492.00"/>
        <lane id=":o2_1_1" index="1" speed="12.50" length="9.22" shape="996.00,498.40 998.46,497.90 1000.00,496.80 1001.54,495.70 1004.00,495.20"/>
        <lane id=":o2_1_2" index="2" speed="12.50" length="9.22" shape="996.00,498.40 1004.00,498.40"/>
    </edge>

    <edge id="-E1" from="1" to="o2" priority="-1" length="300.00">
        <lane id="-E1_0" index="0" speed="13.89" length="300.00" shape="1286.40,501.60 1004.00,501.60"/>
    </edge>
    <edge id="-E2" from="J2" to="1" priority="-1">
        <lane id="-E2_0" index="0" speed="13.89" length="282.40" shape="1308.00,204.00 1308.00,486.40"/>
        <lane id="-E2_1" index="1" speed="13.89" length="282.40" shape="1304.80,204.00 1304.80,486.40"/>
        <lane id="-E2_2" index="2" speed="13.89" length="282.40" shape="1301.60,204.00 1301.60,486.40"/>
    </edge>
    <edge id="-E3" from="J3" to="1" priority="-1">
        <lane id="-E3_0" index="0" speed="13.89" length="282.40" shape="1596.00,508.00 1313.60,508.00"/>
        <lane id="-E3_1" index="1" speed="13.89" length="282.40" shape="1596.00,504.80 1313.60,504.80"/>
        <lane id="-E3_2" index="2" speed="13.89" length="282.40" shape="1596.00,501.60 1313.60,501.60"/>
    </edge>
    <edge id="-E4" from="J4" to="1" priority="-1">
        <lane id="-E4_0" index="0" speed="13.89" length="282.40" shape="1292.00,796.00 1292.00,513.60"/>
        <lane id="-E4_1" index="1" speed="13.89" length="282.40" shape="1295.20,796.00 1295.20,513.60"/>
        <lane id="-E4_2" index="2" speed="13.89" length="282.40" shape="1298.40,796.00 1298.40,513.60"/>
    </edge>
    <edge id="-E5" from="o5" to="J4" priority="-1">
        <lane id="-E5_0" index="0" speed="13.89" length="196.00" shape="1298.40,1000.00 1298.40,804.00"/>
    </edge>
    <edge id="-E6" from="o6" to="J3" priority="-1">
        <lane id="-E6_0" index="0" speed="13.89" length="196.00" shape="1800.00,501.60 1604.00,501.60"/>
    </edge>
    <edge id="-E7" from="o7" to="J2" priority="-1">
        <lane id="-E7_0" index="0" speed="13.89" length="196.00" shape="1301.60,0.00 1301.60,196.00"/>
    </edge>
    <edge id="1fi" from="o1" to="m1" priority="46">
        <lane id="1fi_0" index="0" speed="11.11" length="246.00" shape="0.00,498.40 246.00,498.40"/>
    </edge>
    <edge id="1o" from="0" to="o1" priority="46">
        <lane id="1o_0" index="0" speed="11.11" length="486.40" shape="486.40,501.60 0.00,501.60"/>
    </edge>
    <edge id="1si" from="m1" to="0" priority="74">
        <lane id="1si_0" index="0" speed="13.89" length="232.40" shape="254.00,492.00 486.40,492.00"/>
        <lane id="1si_1" index="1" speed="13.89" length="232.40" shape="254.00,495.20 486.40,495.20"/>
        <lane id="1si_2" index="2" speed="13.89" length="232.40" shape="254.00,498.40 486.40,498.40"/>
    </edge>
    <edge id="2fi" from="o2" to="m2" priority="46" length="250.00">
        <lane id="2fi_0" index="0" speed="11.11" length="250.00" shape="996.00,501.60 754.00,501.60"/>
    </edge>
    <edge id="2o" from="0" to="o2" priority="46">
        <lane id="2o_0" index="0" speed="11.11" length="482.40" shape="513.60,498.40 996.00,498.40"/>
    </edge>
    <edge id="2si" from="m2" to="0" priority="74">
        <lane id="2si_0" index="0" speed="13.89" length="232.40" shape="746.00,508.00 513.60,508.00"/>
        <lane id="2si_1" index="1" speed="13.89" length="232.40" shape="746.00,504.80 513.60,504.80"/>
        <lane id="2si_2" index="2" speed="13.89" length="232.40" shape="746.00,501.60 513.60,501.60"/>
    </edge>
    <edge id="3fi" from="o3" to="m3" priority="46">
        <lane id="3fi_0" index="0" speed="11.11" length="246.00" shape="501.60,0.00 501.60,246.00"/>
    </edge>
    <edge id="3o" from="0" to="o3" priority="46">
        <lane id="3o_0" index="0" speed="11.11" length="486.40" shape="498.40,486.40 498.40,0.00"/>
    </edge>
    <edge id="3si" from="m3" to="0" priority="74">
        <lane id="3si_0" index="0" speed="13.89" length="232.40" shape="508.00,254.00 508.00,486.40"/>
        <lane id="3si_1" index="1" speed="13.89" length="232.40" shape="504.80,254.00 504.80,486.40"/>
        <lane id="3si_2" index="2" speed="13.89" length="232.40" shape="501.60,254.00 501.60,486.40"/>
    </edge>
    <edge id="4fi" from="o4" to="m4" priority="46">
        <lane id="4fi_0" index="0" speed="11.11" length="246.00" shape="498.40,1000.00 498.40,754.00"/>
    </edge>
    <edge id="4o" from="0" to="o4" priority="46">
        <lane id="4o_0" index="0" speed="11.11" length="486.40" shape="501.60,513.60 501.60,1000.00"/>
    </edge>
    <edge id="4si" from="m4" to="0" priority="74">
        <lane id="4si_0" index="0" speed="13.89" length="232.40" shape="492.00,746.00 492.00,513.60"/>
        <lane id="4si_1" index="1" speed="13.89" length="232.40" shape="495.20,746.00 495.20,513.60"/>
        <lane id="4si_2" index="2" speed="13.89" length="232.40" shape="498.40,746.00 498.40,513.60"/>
    </edge>
    <edge id="E1" from="o2" to="1" priority="-1">
        <lane id="E1_0" index="0" speed="13.89" length="282.40" shape="1004.00,492.00 1286.40,492.00"/>
        <lane id="E1_1" index="1" speed="13.89" length="282.40" shape="1004.00,495.20 1286.40,495.20"/>
        <lane id="E1_2" index="2" speed="13.89" length="282.40" shape="1004.00,498.40 1286.40,498.40"/>
    </edge>
    <edge id="E2" from="1" to="J2" priority="-1">
        <lane id="E2_0" index="0" speed="13.89" length="282.40" shape="1298.40,486.40 1298.40,204.00"/>
    </edge>
    <edge id="E3" from="1" to="J3" priority="-1">
        <lane id="E3_0" index="0" speed="13.89" length="282.40" shape="1313.60,498.40 1596.00,498.40"/>
    </edge>
    <edge id="E4" from="1" to="J4" priority="-1">
        <lane id="E4_0" index="0" speed="13.89" length="282.40" shape="1301.60,513.60 1301.60,796.00"/>
    </edge>
    <edge id="E5" from="J4" to="o5" priority="-1">
        <lane id="E5_0" index="0" speed="13.89" length="196.00" shape="1301.60,804.00 1301.60,1000.00"/>
    </edge>
    <edge id="E6" from="J3" to="o6" priority="-1">
        <lane id="E6_0" index="0" speed="13.89" length="196.00" shape="1604.00,498.40 1800.00,498.40"/>
    </edge>
    <edge id="E7" from="J2" to="o7" priority="-1">
        <lane id="E7_0" index="0" speed="13.89" length="196.00" shape="1298.40,196.00 1298.40,0.00"/>
    </edge>

    <tlLogic id="0" type="static" programID="0" offset="0">
        <phase duration="31" state="GGgrrrGGgrrr" minDur="4" maxDur="100"/>
        <phase duration="4"  state="yygrrryygrrr" minDur="4" maxDur="4"/>
        <phase duration="6"  state="rrGrrrrrGrrr" minDur="4" maxDur="100"/>
        <phase duration="4"  state="rryrrrrryrrr" minDur="4" maxDur="4"/>
        <phase duration="31" state="rrrGGgrrrGGg" minDur="4" maxDur="100"/>
        <phase duration="4"  state="rrryygrrryyg" minDur="4" maxDur="4"/>
        <phase duration="6"  state="rrrrrGrrrrrG" minDur="4" maxDur="100"/>
        <phase duration="4"  state="rrrrryrrrrry" minDur="4" maxDur="4"/>
    </tlLogic>
    <tlLogic id="1" type="static" programID="0" offset="0">
        <phase duration="31" state="GGgrrrGGgrrr" minDur="4" maxDur="100"/>
        <phase duration="4"  state="yygrrryygrrr" minDur="4" maxDur="4"/>
        <phase duration="6"  state="rrGrrrrrGrrr" minDur="4" maxDur="100"/>
        <phase duration="4"  state="rryrrrrryrrr" minDur="4" maxDur="4"/>
        <phase duration="31" state="rrrGGgrrrGGg" minDur="4" maxDur="100"/>
        <phase duration="4"  state="rrryygrrryyg" minDur="4" maxDur="4"/>
        <phase duration="6"  state="rrrrrGrrrrrG" minDur="4" maxDur="100"/>
        <phase duration="4"  state="rrrrryrrrrry" minDur="4" maxDur="4"/>
    </tlLogic>

    <junction id="0" type="traffic_light" x="500.00" y="500.00" incLanes="4si_0 4si_1 4si_2 2si_0 2si_1 2si_2 3si_0 3si_1 3si_2 1si_0 1si_1 1si_2" intLanes=":0_0_0 :0_1_0 :0_12_0 :0_3_0 :0_4_0 :0_13_0 :0_6_0 :0_7_0 :0_14_0 :0_9_0 :0_10_0 :0_15_0" shape="490.40,513.60 503.20,513.60 513.60,509.60 513.60,496.80 509.60,486.40 496.80,486.40 486.40,490.40 486.40,503.20">
        <request index="0"  response="000000000000" foes="000100010000" cont="0"/>
        <request index="1"  response="100000100000" foes="111100110000" cont="0"/>
        <request index="2"  response="100011100000" foes="110011110000" cont="1"/>
        <request index="3"  response="000010000000" foes="100010000000" cont="0"/>
        <request index="4"  response="000110000111" foes="100110000111" cont="0"/>
        <request index="5"  response="011110000110" foes="011110000110" cont="1"/>
        <request index="6"  response="000000000000" foes="010000000100" cont="0"/>
        <request index="7"  response="100000100000" foes="110000111100" cont="0"/>
        <request index="8"  response="100000100011" foes="110000110011" cont="1"/>
        <request index="9"  response="000000000010" foes="000000100010" cont="0"/>
        <request index="10" response="000111000110" foes="000111100110" cont="0"/>
        <request index="11" response="000110011110" foes="000110011110" cont="1"/>
    </junction>
    <junction id="1" type="traffic_light" x="1300.00" y="500.00" incLanes="-E4_0 -E4_1 -E4_2 -E3_0 -E3_1 -E3_2 -E2_0 -E2_1 -E2_2 E1_0 E1_1 E1_2" intLanes=":1_0_0 :1_1_0 :1_12_0 :1_3_0 :1_4_0 :1_13_0 :1_6_0 :1_7_0 :1_14_0 :1_9_0 :1_10_0 :1_15_0" shape="1290.40,513.60 1303.20,513.60 1313.60,509.60 1313.60,496.80 1309.60,486.40 1296.80,486.40 1286.40,490.40 1286.40,503.20">
        <request index="0"  response="000000000000" foes="000100010000" cont="0"/>
        <request index="1"  response="100000100000" foes="111100110000" cont="0"/>
        <request index="2"  response="100011100000" foes="110011110000" cont="1"/>
        <request index="3"  response="000010000000" foes="100010000000" cont="0"/>
        <request index="4"  response="000110000111" foes="100110000111" cont="0"/>
        <request index="5"  response="011110000110" foes="011110000110" cont="1"/>
        <request index="6"  response="000000000000" foes="010000000100" cont="0"/>
        <request index="7"  response="100000100000" foes="110000111100" cont="0"/>
        <request index="8"  response="100000100011" foes="110000110011" cont="1"/>
        <request index="9"  response="000000000010" foes="000000100010" cont="0"/>
        <request index="10" response="000111000110" foes="000111100110" cont="0"/>
        <request index="11" response="000110011110" foes="000110011110" cont="1"/>
    </junction>
    <junction id="J2" type="priority" x="1300.00" y="200.00" incLanes="E2_0 -E7_0" intLanes=":J2_0_0 :J2_1_0 :J2_1_1 :J2_1_2" shape="1296.80,204.00 1309.60,204.00 1303.20,196.00 1296.80,196.00">
        <request index="0" response="0000" foes="0000" cont="0"/>
        <request index="1" response="0000" foes="0000" cont="0"/>
        <request index="2" response="0000" foes="0000" cont="0"/>
        <request index="3" response="0000" foes="0000" cont="0"/>
    </junction>
    <junction id="J3" type="priority" x="1600.00" y="500.00" incLanes="-E6_0 E3_0" intLanes=":J3_0_0 :J3_0_1 :J3_0_2 :J3_3_0" shape="1604.00,503.20 1604.00,496.80 1596.00,496.80 1596.00,509.60">
        <request index="0" response="0000" foes="0000" cont="0"/>
        <request index="1" response="0000" foes="0000" cont="0"/>
        <request index="2" response="0000" foes="0000" cont="0"/>
        <request index="3" response="0000" foes="0000" cont="0"/>
    </junction>
    <junction id="J4" type="priority" x="1300.00" y="800.00" incLanes="-E5_0 E4_0" intLanes=":J4_0_0 :J4_0_1 :J4_0_2 :J4_3_0" shape="1296.80,804.00 1303.20,804.00 1303.20,796.00 1290.40,796.00">
        <request index="0" response="0000" foes="0000" cont="0"/>
        <request index="1" response="0000" foes="0000" cont="0"/>
        <request index="2" response="0000" foes="0000" cont="0"/>
        <request index="3" response="0000" foes="0000" cont="0"/>
    </junction>
    <junction id="m1" type="priority" x="250.00" y="500.00" incLanes="1fi_0" intLanes=":m1_0_0 :m1_0_1 :m1_0_2" shape="254.00,500.00 254.00,490.40 246.00,496.80 246.00,500.00">
        <request index="0" response="000" foes="000" cont="0"/>
        <request index="1" response="000" foes="000" cont="0"/>
        <request index="2" response="000" foes="000" cont="0"/>
    </junction>
    <junction id="m2" type="priority" x="750.00" y="500.00" incLanes="2fi_0" intLanes=":m2_0_0 :m2_0_1 :m2_0_2" shape="754.00,503.20 754.00,500.00 746.00,500.00 746.00,509.60">
        <request index="0" response="000" foes="000" cont="0"/>
        <request index="1" response="000" foes="000" cont="0"/>
        <request index="2" response="000" foes="000" cont="0"/>
    </junction>
    <junction id="m3" type="priority" x="500.00" y="250.00" incLanes="3fi_0" intLanes=":m3_0_0 :m3_0_1 :m3_0_2" shape="500.00,254.00 509.60,254.00 503.20,246.00 500.00,246.00">
        <request index="0" response="000" foes="000" cont="0"/>
        <request index="1" response="000" foes="000" cont="0"/>
        <request index="2" response="000" foes="000" cont="0"/>
    </junction>
    <junction id="m4" type="priority" x="500.00" y="750.00" incLanes="4fi_0" intLanes=":m4_0_0 :m4_0_1 :m4_0_2" shape="496.80,754.00 500.00,754.00 500.00,746.00 490.40,746.00">
        <request index="0" response="000" foes="000" cont="0"/>
        <request index="1" response="000" foes="000" cont="0"/>
        <request index="2" response="000" foes="000" cont="0"/>
    </junction>
    <junction id="o1" type="dead_end" x="0.00" y="500.00" incLanes="1o_0" intLanes="" shape="0.00,500.00 0.00,503.20 0.00,500.00"/>
    <junction id="o2" type="priority" x="1000.00" y="500.00" incLanes="-E1_0 2o_0" intLanes=":o2_0_0 :o2_1_0 :o2_1_1 :o2_1_2" shape="1004.00,503.20 1004.00,490.40 996.00,496.80 996.00,503.20">
        <request index="0" response="0000" foes="0000" cont="0"/>
        <request index="1" response="0000" foes="0000" cont="0"/>
        <request index="2" response="0000" foes="0000" cont="0"/>
        <request index="3" response="0000" foes="0000" cont="0"/>
    </junction>
    <junction id="o3" type="dead_end" x="500.00" y="0.00" incLanes="3o_0" intLanes="" shape="500.00,0.00 496.80,0.00 500.00,0.00"/>
    <junction id="o4" type="dead_end" x="500.00" y="1000.00" incLanes="4o_0" intLanes="" shape="500.00,1000.00 503.20,1000.00 500.00,1000.00"/>
    <junction id="o5" type="dead_end" x="1300.00" y="1000.00" incLanes="E5_0" intLanes="" shape="1300.00,1000.00 1303.20,1000.00 1300.00,1000.00"/>
    <junction id="o6" type="dead_end" x="1800.00" y="500.00" incLanes="E6_0" intLanes="" shape="1800.00,500.00 1800.00,496.80 1800.00,500.00"/>
    <junction id="o7" type="dead_end" x="1300.00" y="0.00" incLanes="E7_0" intLanes="" shape="1300.00,0.00 1296.80,0.00 1300.00,0.00"/>

    <junction id=":0_12_0" type="internal" x="500.15" y="505.62" incLanes=":0_2_0 3si_0 3si_1" intLanes=":0_4_0 :0_5_0 :0_6_0 :0_7_0 :0_10_0 :0_11_0"/>
    <junction id=":0_13_0" type="internal" x="505.62" y="499.85" incLanes=":0_5_0 1si_0 1si_1" intLanes=":0_1_0 :0_2_0 :0_7_0 :0_8_0 :0_9_0 :0_10_0"/>
    <junction id=":0_14_0" type="internal" x="499.85" y="494.38" incLanes=":0_8_0 4si_0 4si_1" intLanes=":0_0_0 :0_1_0 :0_4_0 :0_5_0 :0_10_0 :0_11_0"/>
    <junction id=":0_15_0" type="internal" x="494.38" y="500.15" incLanes=":0_11_0 2si_0 2si_1" intLanes=":0_1_0 :0_2_0 :0_3_0 :0_4_0 :0_7_0 :0_8_0"/>
    <junction id=":1_12_0" type="internal" x="1300.15" y="505.62" incLanes=":1_2_0 -E2_0 -E2_1" intLanes=":1_4_0 :1_5_0 :1_6_0 :1_7_0 :1_10_0 :1_11_0"/>
    <junction id=":1_13_0" type="internal" x="1305.62" y="499.85" incLanes=":1_5_0 E1_0 E1_1" intLanes=":1_1_0 :1_2_0 :1_7_0 :1_8_0 :1_9_0 :1_10_0"/>
    <junction id=":1_14_0" type="internal" x="1299.85" y="494.38" incLanes=":1_8_0 -E4_0 -E4_1" intLanes=":1_0_0 :1_1_0 :1_4_0 :1_5_0 :1_10_0 :1_11_0"/>
    <junction id=":1_15_0" type="internal" x="1294.38" y="500.15" incLanes=":1_11_0 -E3_0 -E3_1" intLanes=":1_1_0 :1_2_0 :1_3_0 :1_4_0 :1_7_0 :1_8_0"/>

    <connection from="-E1" to="2fi" fromLane="0" toLane="0" via=":o2_0_0" dir="s" state="M"/>
    <connection from="-E2" to="E3" fromLane="0" toLane="0" via=":1_6_0" tl="1" linkIndex="6" dir="r" state="O"/>
    <connection from="-E2" to="E4" fromLane="1" toLane="0" via=":1_7_0" tl="1" linkIndex="7" dir="s" state="O"/>
    <connection from="-E2" to="-E1" fromLane="2" toLane="0" via=":1_8_0" tl="1" linkIndex="8" dir="l" state="o"/>
    <connection from="-E3" to="E4" fromLane="0" toLane="0" via=":1_3_0" tl="1" linkIndex="3" dir="r" state="o"/>
    <connection from="-E3" to="-E1" fromLane="1" toLane="0" via=":1_4_0" tl="1" linkIndex="4" dir="s" state="o"/>
    <connection from="-E3" to="E2" fromLane="2" toLane="0" via=":1_5_0" tl="1" linkIndex="5" dir="l" state="o"/>
    <connection from="-E4" to="-E1" fromLane="0" toLane="0" via=":1_0_0" tl="1" linkIndex="0" dir="r" state="O"/>
    <connection from="-E4" to="E2" fromLane="1" toLane="0" via=":1_1_0" tl="1" linkIndex="1" dir="s" state="O"/>
    <connection from="-E4" to="E3" fromLane="2" toLane="0" via=":1_2_0" tl="1" linkIndex="2" dir="l" state="o"/>
    <connection from="-E5" to="-E4" fromLane="0" toLane="0" via=":J4_0_0" dir="s" state="M"/>
    <connection from="-E5" to="-E4" fromLane="0" toLane="1" via=":J4_0_1" dir="s" state="M"/>
    <connection from="-E5" to="-E4" fromLane="0" toLane="2" via=":J4_0_2" dir="s" state="M"/>
    <connection from="-E6" to="-E3" fromLane="0" toLane="0" via=":J3_0_0" dir="s" state="M"/>
    <connection from="-E6" to="-E3" fromLane="0" toLane="1" via=":J3_0_1" dir="s" state="M"/>
    <connection from="-E6" to="-E3" fromLane="0" toLane="2" via=":J3_0_2" dir="s" state="M"/>
    <connection from="-E7" to="-E2" fromLane="0" toLane="0" via=":J2_1_0" dir="s" state="M"/>
    <connection from="-E7" to="-E2" fromLane="0" toLane="1" via=":J2_1_1" dir="s" state="M"/>
    <connection from="-E7" to="-E2" fromLane="0" toLane="2" via=":J2_1_2" dir="s" state="M"/>