<?xml version="1.0" encoding="UTF-8"?>

<!-- generated on 2025-06-21 18:47:53.740647 by randomTrips.py v1_21_0+0000-d7b3b481c43
<configuration>
    <net-file value="networks/cross1ltl-training/1/net.net.xml"/>
    <output-trip-file value="networks/cross1ltl-training/1/trips.trips.xml"/>
    <route-file value="networks/cross1ltl-training/1/routes.rou.xml"/>
    <prefix value="_"/>
    <trip-attributes value="type=&quot;SUMO_DEFAULT_TYPE&quot;"/>
    <fringe-factor value="10"/>
    <end value="1000.0"/>
    <period value="2.0"/>
</configuration>
-->

<!-- generated on 2025-06-21 18:47:53 by Eclipse SUMO duarouter Version 1.21.0
<duarouterConfiguration xmlns:xsi="http://www.w3.org/2001/XMLSchema-instance" xsi:noNamespaceSchemaLocation="http://sumo.dlr.de/xsd/duarouterConfiguration.xsd">

    <input>
        <net-file value="networks/cross1ltl-training/1/net.net.xml"/>
        <route-files value="networks/cross1ltl-training/1/trips.trips.xml"/>
    </input>

    <output>
        <output-file value="networks/cross1ltl-training/1/routes.rou.xml"/>
        <alternatives-output value="NUL"/>
    </output>

    <time>
        <begin value="0.0"/>
        <end value="1000.0"/>
    </time>

    <report>
        <no-warnings value="true"/>
        <ignore-errors value="true"/>
        <no-step-log value="true"/>
    </report>

</duarouterConfiguration>
-->

<routes xmlns:xsi="http://www.w3.org/2001/XMLSchema-instance" xsi:noNamespaceSchemaLocation="http://sumo.dlr.de/xsd/routes_file.xsd">
    <vehicle id="_0" type="SUMO_DEFAULT_TYPE" depart="0.00">
        <route edges="3i 1o"/>
    </vehicle>
    <vehicle id="_1" type="SUMO_DEFAULT_TYPE" depart="2.00">
        <route edges="2i 1o"/>
    </vehicle>
    <vehicle id="_2" type="SUMO_DEFAULT_TYPE" depart="4.00">
        <route edges="3i 4o 4i 3o"/>
    </vehicle>
    <vehicle id="_3" type="SUMO_DEFAULT_TYPE" depart="6.00">
        <route edges="4i 1o"/>
    </vehicle>
    <vehicle id="_4" type="SUMO_DEFAULT_TYPE" depart="8.00">
        <route edges="2i 1o"/>
    </vehicle>
    <vehicle id="_5" type="SUMO_DEFAULT_TYPE" depart="10.00">
        <route edges="1i 3o"/>
    </vehicle>
    <vehicle id="_6" type="SUMO_DEFAULT_TYPE" depart="12.00">
        <route edges="1i 2o 2i 1o"/>
    </vehicle>
    <vehicle id="_7" type="SUMO_DEFAULT_TYPE" depart="14.00">
        <route edges="3i 4o 4i 3o"/>
    </vehicle>
    <vehicle id="_8" type="SUMO_DEFAULT_TYPE" depart="16.00">
        <route edges="1i 3o"/>
    </vehicle>
    <vehicle id="_9" type="SUMO_DEFAULT_TYPE" depart="18.00">
        <route edges="4i 1o"/>
    </vehicle>
    <vehicle id="_10" type="SUMO_DEFAULT_TYPE" depart="20.00">
        <route edges="4i 3o"/>
    </vehicle>
    <vehicle id="_11" type="SUMO_DEFAULT_TYPE" depart="22.00">
        <route edges="2i 1o"/>
    </vehicle>
    <vehicle id="_12" type="SUMO_DEFAULT_TYPE" depart="24.00">
        <route edges="4i 2o"/>
    </vehicle>
    <vehicle id="_13" type="SUMO_DEFAULT_TYPE" depart="26.00">
        <route edges="1i 2o 2i 1o"/>
    </vehicle>
    <vehicle id="_14" type="SUMO_DEFAULT_TYPE" depart="28.00">
        <route edges="4i 3o"/>
    </vehicle>
    <vehicle id="_15" type="SUMO_DEFAULT_TYPE" depart="30.00">
        <route edges="4i 3o"/>
    </vehicle>
    <vehicle id="_16" type="SUMO_DEFAULT_TYPE" depart="32.00">
        <route edges="3i 4o"/>
    </vehicle>
    <vehicle id="_17" type="SUMO_DEFAULT_TYPE" depart="34.00">
        <route edges="2i 3o"/>
    </vehicle>
    <vehicle id="_18" type="SUMO_DEFAULT_TYPE" depart="36.00">
        <route edges="4i 3o"/>
    </vehicle>
    <vehicle id="_19" type="SUMO_DEFAULT_TYPE" depart="38.00">
        <route edges="4i 3o"/>
    </vehicle>
    <vehicle id="_20" type="SUMO_DEFAULT_TYPE" depart="40.00">
        <route edges="3i 1o"/>
    </vehicle>
    <vehicle id="_21" type="SUMO_DEFAULT_TYPE" depart="42.00">
        <route edges="1i 2o"/>
    </vehicle>
    <vehicle id="_22" type="SUMO_DEFAULT_TYPE" depart="44.00">
        <route edges="1i 2o 2i 1o"/>
    </vehicle>
    <vehicle id="_23" type="SUMO_DEFAULT_TYPE" depart="46.00">
        <route edges="1i 2o"/>
    </vehicle>
    <vehicle id="_24" type="SUMO_DEFAULT_TYPE" depart="48.00">
        <route edges="3i 2o"/>
    </vehicle>
    <vehicle id="_25" type="SUMO_DEFAULT_TYPE" depart="50.00">
        <route edges="2i 1o"/>
    </vehicle>
    <vehicle id="_26" type="SUMO_DEFAULT_TYPE" depart="52.00">
        <route edges="2i 4o"/>
    </vehicle>
    <vehicle id="_27" type="SUMO_DEFAULT_TYPE" depart="54.00">
        <route edges="3i 4o 4i 3o"/>
    </vehicle>
    <vehicle id="_28" type="SUMO_DEFAULT_TYPE" depart="56.00">
        <route edges="1i 3o"/>
    </vehicle>
    <vehicle id="_29" type="SUMO_DEFAULT_TYPE" depart="58.00">
        <route edges="1i 2o"/>
    </vehicle>
    <vehicle id="_30" type="SUMO_DEFAULT_TYPE" depart="60.00">
        <route edges="4i 3o"/>
    </vehicle>
    <vehicle id="_31" type="SUMO_DEFAULT_TYPE" depart="62.00">
        <route edges="3i 4o 4i 3o"/>
    </vehicle>
    <vehicle id="_32" type="SUMO_DEFAULT_TYPE" depart="64.00">
        <route edges="4i 3o 3i 4o"/>
    </vehicle>
    <vehicle id="_33" type="SUMO_DEFAULT_TYPE" depart="66.00">
        <route edges="1i 2o 2i 1o"/>
    </vehicle>
    <vehicle id="_34" type="SUMO_DEFAULT_TYPE" depart="68.00">
        <route edges="2i 1o 1i 2o"/>
    </vehicle>
    <vehicle id="_35" type="SUMO_DEFAULT_TYPE" depart="70.00">
        <route edges="1i 4o"/>
    </vehicle>
    <vehicle id="_36" type="SUMO_DEFAULT_TYPE" depart="72.00">
        <route edges="4i 2o"/>
    </vehicle>
    <vehicle id="_37" type="SUMO_DEFAULT_TYPE" depart="74.00">
        <route edges="3i 2o"/>
    </vehicle>
    <vehicle id="_38" type="SUMO_DEFAULT_TYPE" depart="76.00">
        <route edges="4i 2o"/>
    </vehicle>
    <vehicle id="_39" type="SUMO_DEFAULT_TYPE" depart="78.00">
        <route edges="2i 1o"/>
    </vehicle>
    <vehicle id="_40" type="SUMO_DEFAULT_TYPE" depart="80.00">
        <route edges="3i 2o"/>
    </vehicle>
    <vehicle id="_41" type="SUMO_DEFAULT_TYPE" depart="82.00">
        <route edges="3i 4o"/>
    </vehicle>
    <vehicle id="_42" type="SUMO_DEFAULT_TYPE" depart="84.00">
        <route edges="2i 1o"/>
    </vehicle>
    <vehicle id="_43" type="SUMO_DEFAULT_TYPE" depart="86.00">
        <route edges="4i 3o"/>
    </vehicle>
    <vehicle id="_44" type="SUMO_DEFAULT_TYPE" depart="88.00">
        <route edges="1i 2o 2i 1o"/>
    </vehicle>
    <vehicle id="_45" type="SUMO_DEFAULT_TYPE" depart="90.00">
        <route edges="1i 3o"/>
    </vehicle>
    <vehicle id="_46" type="SUMO_DEFAULT_TYPE" depart="92.00">
        <route edges="4i 2o"/>
    </vehicle>
    <vehicle id="_47" type="SUMO_DEFAULT_TYPE" depart="94.00">
        <route edges="1i 2o"/>
    </vehicle>
    <vehicle id="_48" type="SUMO_DEFAULT_TYPE" depart="96.00">
        <route edges="4i 3o"/>
    </vehicle>
    <vehicle id="_49" type="SUMO_DEFAULT_TYPE" depart="98.00">
        <route edges="4i 3o 3i 4o"/>
    </vehicle>
    <vehicle id="_50" type="SUMO_DEFAULT_TYPE" depart="100.00">
        <route edges="1i 3o"/>
    </vehicle>
    <vehicle id="_51" type="SUMO_DEFAULT_TYPE" depart="102.00">
        <route edges="3i 4o 4i 3o"/>
    </vehicle>
    <vehicle id="_52" type="SUMO_DEFAULT_TYPE" depart="104.00">
        <route edges="2i 3o"/>
    </vehicle>
    <vehicle id="_53" type="SUMO_DEFAULT_TYPE" depart="106.00">
        <route edges="1i 2o"/>
    </vehicle>
    <vehicle id="_54" type="SUMO_DEFAULT_TYPE" depart="108.00">
        <route edges="2i 4o"/>
    </vehicle>
    <vehicle id="_55" type="SUMO_DEFAULT_TYPE" depart="110.00">
        <route edges="4i 2o"/>
    </vehicle>
    <vehicle id="_56" type="SUMO_DEFAULT_TYPE" depart="112.00">
        <route edges="3i 1o"/>
    </vehicle>
    <vehicle id="_57" type="SUMO_DEFAULT_TYPE" depart="114.00">
        <route edges="4i 3o 3i 4o"/>
    </vehicle>
    <vehicle id="_58" type="SUMO_DEFAULT_TYPE" depart="116.00">
        <route edges="2i 3o"/>
    </vehicle>
    <vehicle id="_59" type="SUMO_DEFAULT_TYPE" depart="118.00">
        <route edges="3i 1o"/>
    </vehicle>
    <vehicle id="_60" type="SUMO_DEFAULT_TYPE" depart="120.00">
        <route edges="4i 3o"/>
    </vehicle>
    <vehicle id="_61" type="SUMO_DEFAULT_TYPE" depart="122.00">
        <route edges="4i 3o"/>
    </vehicle>
    <vehicle id="_62" type="SUMO_DEFAULT_TYPE" depart="124.00">
        <route edges="1i 2o"/>
    </vehicle>
    <vehicle id="_63" type="SUMO_DEFAULT_TYPE" depart="126.00">
        <route edges="1i 4o"/>
    </vehicle>
    <vehicle id="_64" type="SUMO_DEFAULT_TYPE" depart="128.00">
        <route edges="4i 3o 3i 4o"/>
    </vehicle>
    <vehicle id="_65" type="SUMO_DEFAULT_TYPE" depart="130.00">
        <route edges="2i 1o"/>
    </vehicle>
    <vehicle id="_66" type="SUMO_DEFAULT_TYPE" depart="132.00">
        <route edges="4i 3o 3i 4o"/>
    </vehicle>
    <vehicle id="_67" type="SUMO_DEFAULT_TYPE" depart="134.00">
        <route edges="1i 2o"/>
    </vehicle>
    <vehicle id="_68" type="SUMO_DEFAULT_TYPE" depart="136.00">
        <route edges="1i 4o"/>
    </vehicle>
    <vehicle id="_69" type="SUMO_DEFAULT_TYPE" depart="138.00">
        <route edges="4i 1o"/>
    </vehicle>
    <vehicle id="_70" type="SUMO_DEFAULT_TYPE" depart="140.00">
        <route edges="2i 3o"/>
    </vehicle>
    <vehicle id="_71" type="SUMO_DEFAULT_TYPE" depart="142.00">
        <route edges="2i 4o"/>
    </vehicle>
    <vehicle id="_72" type="SUMO_DEFAULT_TYPE" depart="144.00">
        <route edges="2i 1o"/>
    </vehicle>
    <vehicle id="_73" type="SUMO_DEFAULT_TYPE" depart="146.00">
        <route edges="3i 4o 4i 3o"/>
    </vehicle>
    <vehicle id="_74" type="SUMO_DEFAULT_TYPE" depart="148.00">
        <route edges="1i 2o"/>
    </vehicle>
    <vehicle id="_75" type="SUMO_DEFAULT_TYPE" depart="150.00">
        <route edges="4i 3o"/>
    </vehicle>
    <vehicle id="_76" type="SUMO_DEFAULT_TYPE" depart="152.00">
        <route edges="2i 3o"/>
    </vehicle>
    <vehicle id="_77" type="SUMO_DEFAULT_TYPE" depart="154.00">
        <route edges="1i 2o 2i 1o"/>
    </vehicle>
    <vehicle id="_78" type="SUMO_DEFAULT_TYPE" depart="156.00">
        <route edges="2i 3o"/>
    </vehicle>
    <vehicle id="_79" type="SUMO_DEFAULT_TYPE" depart="158.00">
        <route edges="1i 2o 2i 1o"/>
    </vehicle>
    <vehicle id="_80" type="SUMO_DEFAULT_TYPE" depart="160.00">
        <route edges="1i 3o"/>
    </vehicle>
    <vehicle id="_81" type="SUMO_DEFAULT_TYPE" depart="162.00">
        <route edges="1i 4o"/>
    </vehicle>
    <vehicle id="_82" type="SUMO_DEFAULT_TYPE" depart="164.00">
        <route edges="4i 1o"/>
    </vehicle>
    <vehicle id="_83" type="SUMO_DEFAULT_TYPE" depart="166.00">
        <route edges="1i 3o"/>
    </vehicle>
    <vehicle id="_84" type="SUMO_DEFAULT_TYPE" depart="168.00">
        <route edges="1i 2o 2i 1o"/>
    </vehicle>
    <vehicle id="_85" type="SUMO_DEFAULT_TYPE" depart="170.00">
        <route edges="4i 3o"/>
    </vehicle>
    <vehicle id="_86" type="SUMO_DEFAULT_TYPE" depart="172.00">
        <route edges="2i 4o"/>
    </vehicle>
    <vehicle id="_87" type="SUMO_DEFAULT_TYPE" depart="174.00">
        <route edges="4i 1o"/>
    </vehicle>
    <vehicle id="_88" type="SUMO_DEFAULT_TYPE" depart="176.00">
        <route edges="1i 2o"/>
    </vehicle>
    <vehicle id="_89" type="SUMO_DEFAULT_TYPE" depart="178.00">
        <route edges="2i 1o 1i 2o"/>
    </vehicle>
    <vehicle id="_90" type="SUMO_DEFAULT_TYPE" depart="180.00">
        <route edges="3i 4o 4i 3o"/>
    </vehicle>
    <vehicle id="_91" type="SUMO_DEFAULT_TYPE" depart="182.00">
        <route edges="4i 1o"/>
    </vehicle>
    <vehicle id="_92" type="SUMO_DEFAULT_TYPE" depart="184.00">
        <route edges="2i 1o 1i 2o"/>
    </vehicle>
    <vehicle id="_93" type="SUMO_DEFAULT_TYPE" depart="186.00">
        <route edges="4i 1o"/>
    </vehicle>
    <vehicle id="_94" type="SUMO_DEFAULT_TYPE" depart="188.00">
        <route edges="1i 2o"/>
    </vehicle>
    <vehicle id="_95" type="SUMO_DEFAULT_TYPE" depart="190.00">
        <route edges="2i 1o 1i 2o"/>
    </vehicle>
    <vehicle id="_96" type="SUMO_DEFAULT_TYPE" depart="192.00">
        <route edges="1i 4o"/>
    </vehicle>
    <vehicle id="_97" type="SUMO_DEFAULT_TYPE" depart="194.00">
        <route edges="2i 4o"/>
    </vehicle>
    <vehicle id="_98" type="SUMO_DEFAULT_TYPE" depart="196.00">
        <route edges="3i 1o"/>
    </vehicle>
    <vehicle id="_99" type="SUMO_DEFAULT_TYPE" depart="198.00">
        <route edges="4i 3o 3i 4o"/>
    </vehicle>
    <vehicle id="_100" type="SUMO_DEFAULT_TYPE" depart="200.00">
        <route edges="4i 3o 3i 4o"/>
    </vehicle>
    <vehicle id="_101" type="SUMO_DEFAULT_TYPE" depart="202.00">
        <route edges="4i 1o"/>
    </vehicle>
    <vehicle id="_102" type="SUMO_DEFAULT_TYPE" depart="204.00">
        <route edges="2i 1o"/>
    </vehicle>
    <vehicle id="_103" type="SUMO_DEFAULT_TYPE" depart="206.00">
        <route edges="2i 1o"/>
    </vehicle>
    <vehicle id="_104" type="SUMO_DEFAULT_TYPE" depart="208.00">
        <route edges="2i 4o"/>
    </vehicle>
    <vehicle id="_105" type="SUMO_DEFAULT_TYPE" depart="210.00">
        <route edges="2i 4o"/>
    </vehicle>
    <vehicle id="_106" type="SUMO_DEFAULT_TYPE" depart="212.00">
        <route edges="2i 1o 1i 2o"/>
    </vehicle>
    <vehicle id="_107" type="SUMO_DEFAULT_TYPE" depart="214.00">
        <route edges="4i 3o 3i 4o"/>
    </vehicle>
    <vehicle id="_108" type="SUMO_DEFAULT_TYPE" depart="216.00">
        <route edges="3i 4o 4i 3o"/>
    </vehicle>
    <vehicle id="_109" type="SUMO_DEFAULT_TYPE" depart="218.00">
        <route edges="1i 2o"/>
    </vehicle>
    <vehicle id="_110" type="SUMO_DEFAULT_TYPE" depart="220.00">
        <route edges="4i 3o"/>
    </vehicle>
    <vehicle id="_111" type="SUMO_DEFAULT_TYPE" depart="222.00">
        <route edges="3i 4o 4i 3o"/>
    </vehicle>
    <vehicle id="_112" type="SUMO_DEFAULT_TYPE" depart="224.00">
        <route edges="1i 3o"/>
    </vehicle>
    <vehicle id="_113" type="SUMO_DEFAULT_TYPE" depart="226.00">
        <route edges="3i 4o"/>
    </vehicle>
    <vehicle id="_114" type="SUMO_DEFAULT_TYPE" depart="228.00">
        <route edges="1i 4o"/>
    </vehicle>
    <vehicle id="_115" type="SUMO_DEFAULT_TYPE" depart="230.00">
        <route edges="1i 2o 2i 1o"/>
    </vehicle>
    <vehicle id="_116" type="SUMO_DEFAULT_TYPE" depart="232.00">
        <route edges="3i 4o 4i 3o"/>
    </vehicle>
    <vehicle id="_117" type="SUMO_DEFAULT_TYPE" depart="234.00">
        <route edges="1i 2o 2i 1o"/>
    </vehicle>
    <vehicle id="_118" type="SUMO_DEFAULT_TYPE" depart="236.00">
        <route edges="4i 1o"/>
    </vehicle>
    <vehicle id="_119" type="SUMO_DEFAULT_TYPE" depart="238.00">
        <route edges="3i 4o 4i 3o"/>
    </vehicle>
    <vehicle id="_120" type="SUMO_DEFAULT_TYPE" depart="240.00">
        <route edges="2i 3o"/>
    </vehicle>
    <vehicle id="_121" type="SUMO_DEFAULT_TYPE" depart="242.00">
        <route edges="3i 4o"/>
    </vehicle>
    <vehicle id="_122" type="SUMO_DEFAULT_TYPE" depart="244.00">
        <route edges="1i 3o"/>
    </vehicle>
    <vehicle id="_123" type="SUMO_DEFAULT_TYPE" depart="246.00">
        <route edges="1i 2o"/>
    </vehicle>
    <vehicle id="_124" type="SUMO_DEFAULT_TYPE" depart="248.00">
        <route edges="3i 2o"/>
    </vehicle>
    <vehicle id="_125" type="SUMO_DEFAULT_TYPE" depart="250.00">
        <route edges="2i 4o"/>
    </vehicle>
    <vehicle id="_126" type="SUMO_DEFAULT_TYPE" depart="252.00">
        <route edges="1i 2o"/>
    </vehicle>
    <vehicle id="_127" type="SUMO_DEFAULT_TYPE" depart="254.00">
        <route edges="4i 3o 3i 4o"/>
    </vehicle>
    <vehicle id="_128" type="SUMO_DEFAULT_TYPE" depart="256.00">
        <route edges="1i 2o 2i 1o"/>
    </vehicle>
    <vehicle id="_129" type="SUMO_DEFAULT_TYPE" depart="258.00">
        <route edges="2i 4o"/>
    </vehicle>
    <vehicle id="_130" type="SUMO_DEFAULT_TYPE" depart="260.00">
        <route edges="4i 3o 3i 4o"/>
    </vehicle>
    <vehicle id="_131" type="SUMO_DEFAULT_TYPE" depart="262.00">
        <route edges="2i 1o"/>
    </vehicle>
    <vehicle id="_132" type="SUMO_DEFAULT_TYPE" depart="264.00">
        <route edges="4i 3o"/>
    </vehicle>
    <vehicle id="_133" type="SUMO_DEFAULT_TYPE" depart="266.00">
        <route edges="3i 4o"/>
    </vehicle>
    <vehicle id="_134" type="SUMO_DEFAULT_TYPE" depart="268.00">
        <route edges="3i 1o"/>
    </vehicle>
    <vehicle id="_135" type="SUMO_DEFAULT_TYPE" depart="270.00">
        <route edges="4i 2o"/>
    </vehicle>
    <vehicle id="_136" type="SUMO_DEFAULT_TYPE" depart="272.00">
        <route edges="3i 4o"/>
    </vehicle>
    <vehicle id="_137" type="SUMO_DEFAULT_TYPE" depart="274.00">
        <route edges="1i 2o 2i 1o"/>
    </vehicle>
    <vehicle id="_138" type="SUMO_DEFAULT_TYPE" depart="276.00">
        <route edges="1i 3o"/>
    </vehicle>
    <vehicle id="_139" type="SUMO_DEFAULT_TYPE" depart="278.00">
        <route edges="2i 3o"/>
    </vehicle>
    <vehicle id="_140" type="SUMO_DEFAULT_TYPE" depart="280.00">
        <route edges="3i 1o"/>
    </vehicle>
    <vehicle id="_141" type="SUMO_DEFAULT_TYPE" depart="282.00">
        <route edges="3i 2o"/>
    </vehicle>
    <vehicle id="_142" type="SUMO_DEFAULT_TYPE" depart="284.00">
        <route edges="2i 4o"/>
    </vehicle>
    <vehicle id="_143" type="SUMO_DEFAULT_TYPE" depart="286.00">
        <route edges="4i 1o"/>
    </vehicle>
    <vehicle id="_144" type="SUMO_DEFAULT_TYPE" depart="288.00">
        <route edges="2i 1o 1i 2o"/>
    </vehicle>
    <vehicle id="_145" type="SUMO_DEFAULT_TYPE" depart="290.00">
        <route edges="1i 4o"/>
    </vehicle>
    <vehicle id="_146" type="SUMO_DEFAULT_TYPE" depart="292.00">
        <route edges="3i 2o"/>
    </vehicle>
    <vehicle id="_147" type="SUMO_DEFAULT_TYPE" depart="294.00">
        <route edges="3i 4o 4i 3o"/>
    </vehicle>
    <vehicle id="_148" type="SUMO_DEFAULT_TYPE" depart="296.00">
        <route edges="2i 1o"/>
    </vehicle>
    <vehicle id="_149" type="SUMO_DEFAULT_TYPE" depart="298.00">
        <route edges="1i 4o"/>
    </vehicle>
    <vehicle id="_150" type="SUMO_DEFAULT_TYPE" depart="300.00">
        <route edges="4i 3o"/>
    </vehicle>
    <vehicle id="_151" type="SUMO_DEFAULT_TYPE" depart="302.00">
        <route edges="4i 3o"/>
    </vehicle>
    <vehicle id="_152" type="SUMO_DEFAULT_TYPE" depart="304.00">
        <route edges="1i 2o 2i 1o"/>
    </vehicle>
    <vehicle id="_153" type="SUMO_DEFAULT_TYPE" depart="306.00">
        <route edges="2i 4o"/>
    </vehicle>
    <vehicle id="_154" type="SUMO_DEFAULT_TYPE" depart="308.00">
        <route edges="4i 3o 3i 4o"/>
    </vehicle>
    <vehicle id="_155" type="SUMO_DEFAULT_TYPE" depart="310.00">
        <route edges="4i 1o"/>
    </vehicle>
    <vehicle id="_156" type="SUMO_DEFAULT_TYPE" depart="312.00">
        <route edges="1i 2o 2i 1o"/>
    </vehicle>
    <vehicle id="_157" type="SUMO_DEFAULT_TYPE" depart="314.00">
        <route edges="4i 3o 3i 4o"/>
    </vehicle>
    <vehicle id="_158" type="SUMO_DEFAULT_TYPE" depart="316.00">
        <route edges="2i 3o"/>
    </vehicle>
    <vehicle id="_159" type="SUMO_DEFAULT_TYPE" depart="318.00">
        <route edges="1i 4o"/>
    </vehicle>
    <vehicle id="_160" type="SUMO_DEFAULT_TYPE" depart="320.00">
        <route edges="4i 3o 3i 4o"/>
    </vehicle>
    <vehicle id="_161" type="SUMO_DEFAULT_TYPE" depart="322.00">
        <route edges="4i 3o 3i 4o"/>
    </vehicle>
    <vehicle id="_162" type="SUMO_DEFAULT_TYPE" depart="324.00">
        <route edges="1i 3o"/>
    </vehicle>
    <vehicle id="_163" type="SUMO_DEFAULT_TYPE" depart="326.00">
        <route edges="2i 4o"/>
    </vehicle>
    <vehicle id="_164" type="SUMO_DEFAULT_TYPE" depart="328.00">
        <route edges="4i 3o 3i 4o"/>
    </vehicle>
    <vehicle id="_165" type="SUMO_DEFAULT_TYPE" depart="330.00">
        <route edges="4i 2o"/>
    </vehicle>
    <vehicle id="_166" type="SUMO_DEFAULT_TYPE" depart="332.00">
        <route edges="4i 1o"/>
    </vehicle>
    <vehicle id="_167" type="SUMO_DEFAULT_TYPE" depart="334.00">
        <route edges="4i 3o 3i 4o"/>
    </vehicle>
    <vehicle id="_168" type="SUMO_DEFAULT_TYPE" depart="336.00">
        <route edges="1i 4o"/>
    </vehicle>
    <vehicle id="_169" type="SUMO_DEFAULT_TYPE" depart="338.00">
        <route edges="2i 1o 1i 2o"/>
    </vehicle>
    <vehicle id="_170" type="SUMO_DEFAULT_TYPE" depart="340.00">
        <route edges="4i 1o"/>
    </vehicle>
    <vehicle id="_171" type="SUMO_DEFAULT_TYPE" depart="342.00">
        <route edges="1i 2o 2i 1o"/>
    </vehicle>
    <vehicle id="_172" type="SUMO_DEFAULT_TYPE" depart="344.00">
        <route edges="2i 4o"/>
    </vehicle>
    <vehicle id="_173" type="SUMO_DEFAULT_TYPE" depart="346.00">
        <route edges="4i 2o"/>
    </vehicle>
    <vehicle id="_174" type="SUMO_DEFAULT_TYPE" depart="348.00">
        <route edges="3i 2o"/>
    </vehicle>
    <vehicle id="_175" type="SUMO_DEFAULT_TYPE" depart="350.00">
        <route edges="4i 3o"/>
    </vehicle>
    <vehicle id="_176" type="SUMO_DEFAULT_TYPE" depart="352.00">
        <route edges="4i 1o"/>
    </vehicle>
    <vehicle id="_177" type="SUMO_DEFAULT_TYPE" depart="354.00">
        <route edges="4i 1o"/>
    </vehicle>
    <vehicle id="_178" type="SUMO_DEFAULT_TYPE" depart="356.00">
        <route edges="4i 2o"/>
    </vehicle>
    <vehicle id="_179" type="SUMO_DEFAULT_TYPE" depart="358.00">
        <route edges="1i 2o"/>
    </vehicle>
    <vehicle id="_180" type="SUMO_DEFAULT_TYPE" depart="360.00">
        <route edges="3i 2o"/>
    </vehicle>
    <vehicle id="_181" type="SUMO_DEFAULT_TYPE" depart="362.00">
        <route edges="3i 4o 4i 3o"/>
    </vehicle>
    <vehicle id="_182" type="SUMO_DEFAULT_TYPE" depart="364.00">
        <route edges="2i 3o"/>
    </vehicle>
    <vehicle id="_183" type="SUMO_DEFAULT_TYPE" depart="366.00">
        <route edges="2i 3o"/>
    </vehicle>
    <vehicle id="_184" type="SUMO_DEFAULT_TYPE" depart="368.00">
        <route edges="1i 4o"/>
    </vehicle>
    <vehicle id="_185" type="SUMO_DEFAULT_TYPE" depart="370.00">
        <route edges="3i 4o 4i 3o"/>
    </vehicle>
    <vehicle id="_186" type="SUMO_DEFAULT_TYPE" depart="372.00">
        <route edges="3i 4o 4i 3o"/>
    </vehicle>
    <vehicle id="_187" type="SUMO_DEFAULT_TYPE" depart="374.00">
        <route edges="2i 1o"/>
    </vehicle>
    <vehicle id="_188" type="SUMO_DEFAULT_TYPE" depart="376.00">
        <route edges="3i 2o"/>
    </vehicle>
    <vehicle id="_189" type="SUMO_DEFAULT_TYPE" depart="378.00">
        <route edges="2i 4o"/>
    </vehicle>
    <vehicle id="_190" type="SUMO_DEFAULT_TYPE" depart="380.00">
        <route edges="3i 2o"/>
    </vehicle>
    <vehicle id="_191" type="SUMO_DEFAULT_TYPE" depart="382.00">
        <route edges="2i 1o 1i 2o"/>
    </vehicle>
    <vehicle id="_192" type="SUMO_DEFAULT_TYPE" depart="384.00">
        <route edges="2i 1o 1i 2o"/>
    </vehicle>
    <vehicle id="_193" type="SUMO_DEFAULT_TYPE" depart="386.00">
        <route edges="1i 2o"/>
    </vehicle>
    <vehicle id="_194" type="SUMO_DEFAULT_TYPE" depart="388.00">
        <route edges="4i 3o"/>
    </vehicle>
    <vehicle id="_195" type="SUMO_DEFAULT_TYPE" depart="390.00">
        <route edges="4i 3o"/>
    </vehicle>
    <vehicle id="_196" type="SUMO_DEFAULT_TYPE" depart="392.00">
        <route edges="2i 3o"/>
    </vehicle>
    <vehicle id="_197" type="SUMO_DEFAULT_TYPE" depart="394.00">
        <route edges="1i 2o"/>
    </vehicle>
    <vehicle id="_198" type="SUMO_DEFAULT_TYPE" depart="396.00">
        <route edges="2i 3o"/>
    </vehicle>
    <vehicle id="_199" type="SUMO_DEFAULT_TYPE" depart="398.00">
        <route edges="3i 2o"/>
    </vehicle>
    <vehicle id="_200" type="SUMO_DEFAULT_TYPE" depart="400.00">
        <route edges="2i 1o"/>
    </vehicle>
    <vehicle id="_201" type="SUMO_DEFAULT_TYPE" depart="402.00">
        <route edges="2i 4o"/>
    </vehicle>
    <vehicle id="_202" type="SUMO_DEFAULT_TYPE" depart="404.00">
        <route edges="4i 1o"/>
    </vehicle>
    <vehicle id="_203" type="SUMO_DEFAULT_TYPE" depart="406.00">
        <route edges="1i 3o"/>
    </vehicle>
    <vehicle id="_204" type="SUMO_DEFAULT_TYPE" depart="408.00">
        <route edges="3i 2o"/>
    </vehicle>
    <vehicle id="_205" type="SUMO_DEFAULT_TYPE" depart="410.00">
        <route edges="4i 3o 3i 4o"/>
    </vehicle>
    <vehicle id="_206" type="SUMO_DEFAULT_TYPE" depart="412.00">
        <route edges="3i 1o"/>
    </vehicle>
    <vehicle id="_207" type="SUMO_DEFAULT_TYPE" depart="414.00">
        <route edges="1i 2o 2i 1o"/>
    </vehicle>
    <vehicle id="_208" type="SUMO_DEFAULT_TYPE" depart="416.00">
        <route edges="1i 2o"/>
    </vehicle>
    <vehicle id="_209" type="SUMO_DEFAULT_TYPE" depart="418.00">
        <route edges="4i 1o"/>
    </vehicle>
    <vehicle id="_210" type="SUMO_DEFAULT_TYPE" depart="420.00">
        <route edges="2i 3o"/>
    </vehicle>
    <vehicle id="_211" type="SUMO_DEFAULT_TYPE" depart="422.00">
        <route edges="1i 3o"/>
    </vehicle>
    <vehicle id="_212" type="SUMO_DEFAULT_TYPE" depart="424.00">
        <route edges="2i 1o"/>
    </vehicle>
    <vehicle id="_213" type="SUMO_DEFAULT_TYPE" depart="426.00">
        <route edges="3i 1o"/>
    </vehicle>
    <vehicle id="_214" type="SUMO_DEFAULT_TYPE" depart="428.00">
        <route edges="4i 3o 3i 4o"/>
    </vehicle>
    <vehicle id="_215" type="SUMO_DEFAULT_TYPE" depart="430.00">
        <route edges="1i 2o"/>
    </vehicle>
    <vehicle id="_216" type="SUMO_DEFAULT_TYPE" depart="432.00">
        <route edges="1i 4o"/>
    </vehicle>
    <vehicle id="_217" type="SUMO_DEFAULT_TYPE" depart="434.00">
        <route edges="3i 1o"/>
    </vehicle>
    <vehicle id="_218" type="SUMO_DEFAULT_TYPE" depart="436.00">
        <route edges="1i 4o"/>
    </vehicle>
    <vehicle id="_219" type="SUMO_DEFAULT_TYPE" depart="438.00">
        <route edges="2i 4o"/>
    </vehicle>
    <vehicle id="_220" type="SUMO_DEFAULT_TYPE" depart="440.00">
        <route edges="3i 4o"/>
    </vehicle>
    <vehicle id="_221" type="SUMO_DEFAULT_TYPE" depart="442.00">
        <route edges="3i 4o"/>
    </vehicle>
    <vehicle id="_222" type="SUMO_DEFAULT_TYPE" depart="444.00">
        <route edges="4i 3o"/>
    </vehicle>
    <vehicle id="_223" type="SUMO_DEFAULT_TYPE" depart="446.00">
        <route edges="3i 4o 4i 3o"/>
    </vehicle>
    <vehicle id="_224" type="SUMO_DEFAULT_TYPE" depart="448.00">
        <route edges="4i 3o"/>
    </vehicle>
    <vehicle id="_225" type="SUMO_DEFAULT_TYPE" depart="450.00">
        <route edges="4i 3o"/>
    </vehicle>
    <vehicle id="_226" type="SUMO_DEFAULT_TYPE" depart="452.00">
        <route edges="2i 1o 1i 2o"/>
    </vehicle>
    <vehicle id="_227" type="SUMO_DEFAULT_TYPE" depart="454.00">
        <route edges="1i 3o"/>
    </vehicle>
    <vehicle id="_228" type="SUMO_DEFAULT_TYPE" depart="456.00">
        <route edges="4i 3o"/>
    </vehicle>
    <vehicle id="_229" type="SUMO_DEFAULT_TYPE" depart="458.00">
        <route edges="3i 2o"/>
    </vehicle>
    <vehicle id="_230" type="SUMO_DEFAULT_TYPE" depart="460.00">
        <route edges="1i 2o"/>
    </vehicle>
    <vehicle id="_231" type="SUMO_DEFAULT_TYPE" depart="462.00">
        <route edges="2i 1o 1i 2o"/>
    </vehicle>
    <vehicle id="_232" type="SUMO_DEFAULT_TYPE" depart="464.00">
        <route edges="3i 1o"/>
    </vehicle>
    <vehicle id="_233" type="SUMO_DEFAULT_TYPE" depart="466.00">
        <route edges="1i 3o"/>
    </vehicle>
    <vehicle id="_234" type="SUMO_DEFAULT_TYPE" depart="468.00">
        <route edges="3i 1o"/>
    </vehicle>
    <vehicle id="_235" type="SUMO_DEFAULT_TYPE" depart="470.00">
        <route edges="2i 3o"/>
    </vehicle>
    <vehicle id="_236" type="SUMO_DEFAULT_TYPE" depart="472.00">
        <route edges="2i 1o"/>
    </vehicle>
    <vehicle id="_237" type="SUMO_DEFAULT_TYPE" depart="474.00">
        <route edges="2i 4o"/>
    </vehicle>
    <vehicle id="_238" type="SUMO_DEFAULT_TYPE" depart="476.00">
        <route edges="3i 4o 4i 3o"/>
    </vehicle>
    <vehicle id="_239" type="SUMO_DEFAULT_TYPE" depart="478.00">
        <route edges="4i 3o 3i 4o"/>
    </vehicle>
    <vehicle id="_240" type="SUMO_DEFAULT_TYPE" depart="480.00">
        <route edges="2i 1o"/>
    </vehicle>
    <vehicle id="_241" type="SUMO_DEFAULT_TYPE" depart="482.00">
        <route edges="2i 4o"/>
    </vehicle>
    <vehicle id="_242" type="SUMO_DEFAULT_TYPE" depart="484.00">
        <route edges="4i 3o 3i 4o"/>
    </vehicle>
    <vehicle id="_243" type="SUMO_DEFAULT_TYPE" depart="486.00">
        <route edges="2i 3o"/>
    </vehicle>
    <vehicle id="_244" type="SUMO_DEFAULT_TYPE" depart="488.00">
        <route edges="3i 4o 4i 3o"/>
    </vehicle>
    <vehicle id="_245" type="SUMO_DEFAULT_TYPE" depart="490.00">
        <route edges="1i 2o 2i 1o"/>
    </vehicle>
    <vehicle id="_246" type="SUMO_DEFAULT_TYPE" depart="492.00">
        <route edges="2i 1o"/>
    </vehicle>
    <vehicle id="_247" type="SUMO_DEFAULT_TYPE" depart="494.00">
        <route edges="2i 3o"/>
    </vehicle>
    <vehicle id="_248" type="SUMO_DEFAULT_TYPE" depart="496.00">
        <route edges="2i 1o"/>
    </vehicle>
    <vehicle id="_249" type="SUMO_DEFAULT_TYPE" depart="498.00">
        <route edges="2i 1o"/>
    </vehicle>
    <vehicle id="_250" type="SUMO_DEFAULT_TYPE" depart="500.00">
        <route edges="3i 1o"/>
    </vehicle>
    <vehicle id="_251" type="SUMO_DEFAULT_TYPE" depart="502.00">
        <route edges="2i 3o"/>
    </vehicle>
    <vehicle id="_252" type="SUMO_DEFAULT_TYPE" depart="504.00">
        <route edges="1i 3o"/>
    </vehicle>
    <vehicle id="_253" type="SUMO_DEFAULT_TYPE" depart="506.00">
        <route edges="1i 2o"/>
    </vehicle>
    <vehicle id="_254" type="SUMO_DEFAULT_TYPE" depart="508.00">