<?xml version="1.0" encoding="UTF-8"?>

<!-- generated on 2025-06-21 18:47:53.530420 by randomTrips.py v1_21_0+0000-d7b3b481c43
<configuration>
    <net-file value="networks/cross1ltl-training/1/net.net.xml"/>
    <output-trip-file value="networks/cross1ltl-training/1/trips.trips.xml"/>
    <route-file value="networks/cross1ltl-training/1/routes.rou.xml"/>
    <prefix value="_"/>
    <trip-attributes value="type=&quot;SUMO_DEFAULT_TYPE&quot;"/>
    <fringe-factor value="10"/>
    <end value="1000.0"/>
    <period value="2.0"/>
</configuration>
-->

<routes xmlns:xsi="http://www.w3.org/2001/XMLSchema-instance" xsi:noNamespaceSchemaLocation="http://sumo.dlr.de/xsd/routes_file.xsd">
    <trip id="_0" depart="0.00" from="3i" to="1o" type="SUMO_DEFAULT_TYPE"/>
    <trip id="_1" depart="2.00" from="2i" to="1o" type="SUMO_DEFAULT_TYPE"/>
    <trip id="_2" depart="4.00" from="3i" to="3o" type="SUMO_DEFAULT_TYPE"/>
    <trip id="_3" depart="6.00" from="4i" to="1o" type="SUMO_DEFAULT_TYPE"/>
    <trip id="_4" depart="8.00" from="2i" to="1o" type="SUMO_DEFAULT_TYPE"/>
    <trip id="_5" depart="10.00" from="1i" to="3o" type="SUMO_DEFAULT_TYPE"/>
    <trip id="_6" depart="12.00" from="1i" to="1o" type="SUMO_DEFAULT_TYPE"/>
    <trip id="_7" depart="14.00" from="3i" to="3o" type="SUMO_DEFAULT_TYPE"/>
    <trip id="_8" depart="16.00" from="1i" to="3o" type="SUMO_DEFAULT_TYPE"/>
    <trip id="_9" depart="18.00" from="4i" to="1o" type="SUMO_DEFAULT_TYPE"/>
    <trip id="_10" depart="20.00" from="4i" to="3o" type="SUMO_DEFAULT_TYPE"/>
    <trip id="_11" depart="22.00" from="2i" to="1o" type="SUMO_DEFAULT_TYPE"/>
    <trip id="_12" depart="24.00" from="4i" to="2o" type="SUMO_DEFAULT_TYPE"/>
    <trip id="_13" depart="26.00" from="1i" to="1o" type="SUMO_DEFAULT_TYPE"/>
    <trip id="_14" depart="28.00" from="4i" to="3o" type="SUMO_DEFAULT_TYPE"/>
    <trip id="_15" depart="30.00" from="4i" to="3o" type="SUMO_DEFAULT_TYPE"/>
    <trip id="_16" depart="32.00" from="3i" to="4o" type="SUMO_DEFAULT_TYPE"/>
    <trip id="_17" depart="34.00" from="2i" to="3o" type="SUMO_DEFAULT_TYPE"/>
    <trip id="_18" depart="36.00" from="4i" to="3o" type="SUMO_DEFAULT_TYPE"/>
    <trip id="_19" depart="38.00" from="4i" to="3o" type="SUMO_DEFAULT_TYPE"/>
    <trip id="_20" depart="40.00" from="3i" to="1o" type="SUMO_DEFAULT_TYPE"/>
    <trip id="_21" depart="42.00" from="1i" to="2o" type="SUMO_DEFAULT_TYPE"/>
    <trip id="_22" depart="44.00" from="1i" to="1o" type="SUMO_DEFAULT_TYPE"/>
    <trip id="_23" depart="46.00" from="1i" to="2o" type="SUMO_DEFAULT_TYPE"/>
    <trip id="_24" depart="48.00" from="3i" to="2o" type="SUMO_DEFAULT_TYPE"/>
    <trip id="_25" depart="50.00" from="2i" to="1o" type="SUMO_DEFAULT_TYPE"/>
    <trip id="_26" depart="52.00" from="2i" to="4o" type="SUMO_DEFAULT_TYPE"/>
    <trip id="_27" depart="54.00" from="3i" to="3o" type="SUMO_DEFAULT_TYPE"/>
    <trip id="_28" depart="56.00" from="1i" to="3o" type="SUMO_DEFAULT_TYPE"/>
    <trip id="_29" depart="58.00" from="1i" to="2o" type="SUMO_DEFAULT_TYPE"/>
    <trip id="_30" depart="60.00" from="4i" to="3o" type="SUMO_DEFAULT_TYPE"/>
    <trip id="_31" depart="62.00" from="3i" to="3o" type="SUMO_DEFAULT_TYPE"/>
    <trip id="_32" depart="64.00" from="4i" to="4o" type="SUMO_DEFAULT_TYPE"/>
    <trip id="_33" depart="66.00" from="1i" to="1o" type="SUMO_DEFAULT_TYPE"/>
    <trip id="_34" depart="68.00" from="2i" to="2o" type="SUMO_DEFAULT_TYPE"/>
    <trip id="_35" depart="70.00" from="1i" to="4o" type="SUMO_DEFAULT_TYPE"/>
    <trip id="_36" depart="72.00" from="4i" to="2o" type="SUMO_DEFAULT_TYPE"/>
    <trip id="_37" depart="74.00" from="3i" to="2o" type="SUMO_DEFAULT_TYPE"/>
    <trip id="_38" depart="76.00" from="4i" to="2o" type="SUMO_DEFAULT_TYPE"/>
    <trip id="_39" depart="78.00" from="2i" to="1o" type="SUMO_DEFAULT_TYPE"/>
    <trip id="_40" depart="80.00" from="3i" to="2o" type="SUMO_DEFAULT_TYPE"/>
    <trip id="_41" depart="82.00" from="3i" to="4o" type="SUMO_DEFAULT_TYPE"/>
    <trip id="_42" depart="84.00" from="2i" to="1o" type="SUMO_DEFAULT_TYPE"/>
    <trip id="_43" depart="86.00" from="4i" to="3o" type="SUMO_DEFAULT_TYPE"/>
    <trip id="_44" depart="88.00" from="1i" to="1o" type="SUMO_DEFAULT_TYPE"/>
    <trip id="_45" depart="90.00" from="1i" to="3o" type="SUMO_DEFAULT_TYPE"/>
    <trip id="_46" depart="92.00" from="4i" to="2o" type="SUMO_DEFAULT_TYPE"/>
    <trip id="_47" depart="94.00" from="1i" to="2o" type="SUMO_DEFAULT_TYPE"/>
    <trip id="_48" depart="96.00" from="4i" to="3o" type="SUMO_DEFAULT_TYPE"/>
    <trip id="_49" depart="98.00" from="4i" to="4o" type="SUMO_DEFAULT_TYPE"/>
    <trip id="_50" depart="100.00" from="1i" to="3o" type="SUMO_DEFAULT_TYPE"/>
    <trip id="_51" depart="102.00" from="3i" to="3o" type="SUMO_DEFAULT_TYPE"/>
    <trip id="_52" depart="104.00" from="2i" to="3o" type="SUMO_DEFAULT_TYPE"/>
    <trip id="_53" depart="106.00" from="1i" to="2o" type="SUMO_DEFAULT_TYPE"/>
    <trip id="_54" depart="108.00" from="2i" to="4o" type="SUMO_DEFAULT_TYPE"/>
    <trip id="_55" depart="110.00" from="4i" to="2o" type="SUMO_DEFAULT_TYPE"/>
    <trip id="_56" depart="112.00" from="3i" to="1o" type="SUMO_DEFAULT_TYPE"/>
    <trip id="_57" depart="114.00" from="4i" to="4o" type="SUMO_DEFAULT_TYPE"/>
    <trip id="_58" depart="116.00" from="2i" to="3o" type="SUMO_DEFAULT_TYPE"/>
    <trip id="_59" depart="118.00" from="3i" to="1o" type="SUMO_DEFAULT_TYPE"/>
    <trip id="_60" depart="120.00" from="4i" to="3o" type="SUMO_DEFAULT_TYPE"/>
    <trip id="_61" depart="122.00" from="4i" to="3o" type="SUMO_DEFAULT_TYPE"/>
    <trip id="_62" depart="124.00" from="1i" to="2o" type="SUMO_DEFAULT_TYPE"/>
    <trip id="_63" depart="126.00" from="1i" to="4o" type="SUMO_DEFAULT_TYPE"/>
    <trip id="_64" depart="128.00" from="4i" to="4o" type="SUMO_DEFAULT_TYPE"/>
    <trip id="_65" depart="130.00" from="2i" to="1o" type="SUMO_DEFAULT_TYPE"/>
    <trip id="_66" depart="132.00" from="4i" to="4o" type="SUMO_DEFAULT_TYPE"/>
    <trip id="_67" depart="134.00" from="1i" to="2o" type="SUMO_DEFAULT_TYPE"/>
    <trip id="_68" depart="136.00" from="1i" to="4o" type="SUMO_DEFAULT_TYPE"/>
    <trip id="_69" depart="138.00" from="4i" to="1o" type="SUMO_DEFAULT_TYPE"/>
    <trip id="_70" depart="140.00" from="2i" to="3o" type="SUMO_DEFAULT_TYPE"/>
    <trip id="_71" depart="142.00" from="2i" to="4o" type="SUMO_DEFAULT_TYPE"/>
    <trip id="_72" depart="144.00" from="2i" to="1o" type="SUMO_DEFAULT_TYPE"/>
    <trip id="_73" depart="146.00" from="3i" to="3o" type="SUMO_DEFAULT_TYPE"/>
    <trip id="_74" depart="148.00" from="1i" to="2o" type="SUMO_DEFAULT_TYPE"/>
    <trip id="_75" depart="150.00" from="4i" to="3o" type="SUMO_DEFAULT_TYPE"/>
    <trip id="_76" depart="152.00" from="2i" to="3o" type="SUMO_DEFAULT_TYPE"/>
    <trip id="_77" depart="154.00" from="1i" to="1o" type="SUMO_DEFAULT_TYPE"/>
    <trip id="_78" depart="156.00" from="2i" to="3o" type="SUMO_DEFAULT_TYPE"/>
    <trip id="_79" depart="158.00" from="1i" to="1o" type="SUMO_DEFAULT_TYPE"/>
    <trip id="_80" depart="160.00" from="1i" to="3o" type="SUMO_DEFAULT_TYPE"/>
    <trip id="_81" depart="162.00" from="1i" to="4o" type="SUMO_DEFAULT_TYPE"/>
    <trip id="_82" depart="164.00" from="4i" to="1o" type="SUMO_DEFAULT_TYPE"/>
    <trip id="_83" depart="166.00" from="1i" to="3o" type="SUMO_DEFAULT_TYPE"/>
    <trip id="_84" depart="168.00" from="1i" to="1o" type="SUMO_DEFAULT_TYPE"/>
    <trip id="_85" depart="170.00" from="4i" to="3o" type="SUMO_DEFAULT_TYPE"/>
    <trip id="_86" depart="172.00" from="2i" to="4o" type="SUMO_DEFAULT_TYPE"/>
    <trip id="_87" depart="174.00" from="4i" to="1o" type="SUMO_DEFAULT_TYPE"/>
    <trip id="_88" depart="176.00" from="1i" to="2o" type="SUMO_DEFAULT_TYPE"/>
    <trip id="_89" depart="178.00" from="2i" to="2o" type="SUMO_DEFAULT_TYPE"/>
    <trip id="_90" depart="180.00" from="3i" to="3o" type="SUMO_DEFAULT_TYPE"/>
    <trip id="_91" depart="182.00" from="4i" to="1o" type="SUMO_DEFAULT_TYPE"/>
    <trip id="_92" depart="184.00" from="2i" to="2o" type="SUMO_DEFAULT_TYPE"/>
    <trip id="_93" depart="186.00" from="4i" to="1o" type="SUMO_DEFAULT_TYPE"/>
    <trip id="_94" depart="188.00" from="1i" to="2o" type="SUMO_DEFAULT_TYPE"/>
    <trip id="_95" depart="190.00" from="2i" to="2o" type="SUMO_DEFAULT_TYPE"/>
    <trip id="_96" depart="192.00" from="1i" to="4o" type="SUMO_DEFAULT_TYPE"/>
    <trip id="_97" depart="194.00" from="2i" to="4o" type="SUMO_DEFAULT_TYPE"/>
    <trip id="_98" depart="196.00" from="3i" to="1o" type="SUMO_DEFAULT_TYPE"/>
    <trip id="_99" depart="198.00" from="4i" to="4o" type="SUMO_DEFAULT_TYPE"/>
    <trip id="_100" depart="200.00" from="4i" to="4o" type="SUMO_DEFAULT_TYPE"/>
    <trip id="_101" depart="202.00" from="4i" to="1o" type="SUMO_DEFAULT_TYPE"/>
    <trip id="_102" depart="204.00" from="2i" to="1o" type="SUMO_DEFAULT_TYPE"/>
    <trip id="_103" depart="206.00" from="2i" to="1o" type="SUMO_DEFAULT_TYPE"/>
    <trip id="_104" depart="208.00" from="2i" to="4o" type="SUMO_DEFAULT_TYPE"/>
    <trip id="_105" depart="210.00" from="2i" to="4o" type="SUMO_DEFAULT_TYPE"/>
    <trip id="_106" depart="212.00" from="2i" to="2o" type="SUMO_DEFAULT_TYPE"/>
    <trip id="_107" depart="214.00" from="4i" to="4o" type="SUMO_DEFAULT_TYPE"/>
    <trip id="_108" depart="216.00" from="3i" to="3o" type="SUMO_DEFAULT_TYPE"/>
    <trip id="_109" depart="218.00" from="1i" to="2o" type="SUMO_DEFAULT_TYPE"/>
    <trip id="_110" depart="220.00" from="4i" to="3o" type="SUMO_DEFAULT_TYPE"/>
    <trip id="_111" depart="222.00" from="3i" to="3o" type="SUMO_DEFAULT_TYPE"/>
    <trip id="_112" depart="224.00" from="1i" to="3o" type="SUMO_DEFAULT_TYPE"/>
    <trip id="_113" depart="226.00" from="3i" to="4o" type="SUMO_DEFAULT_TYPE"/>
    <trip id="_114" depart="228.00" from="1i" to="4o" type="SUMO_DEFAULT_TYPE"/>
    <trip id="_115" depart="230.00" from="1i" to="1o" type="SUMO_DEFAULT_TYPE"/>
    <trip id="_116" depart="232.00" from="3i" to="3o" type="SUMO_DEFAULT_TYPE"/>
    <trip id="_117" depart="234.00" from="1i" to="1o" type="SUMO_DEFAULT_TYPE"/>
    <trip id="_118" depart="236.00" from="4i" to="1o" type="SUMO_DEFAULT_TYPE"/>
    <trip id="_119" depart="238.00" from="3i" to="3o" type="SUMO_DEFAULT_TYPE"/>
    <trip id="_120" depart="240.00" from="2i" to="3o" type="SUMO_DEFAULT_TYPE"/>
    <trip id="_121" depart="242.00" from="3i" to="4o" type="SUMO_DEFAULT_TYPE"/>
    <trip id="_122" depart="244.00" from="1i" to="3o" type="SUMO_DEFAULT_TYPE"/>
    <trip id="_123" depart="246.00" from="1i" to="2o" type="SUMO_DEFAULT_TYPE"/>
    <trip id="_124" depart="248.00" from="3i" to="2o" type="SUMO_DEFAULT_TYPE"/>
    <trip id="_125" depart="250.00" from="2i" to="4o" type="SUMO_DEFAULT_TYPE"/>
    <trip id="_126" depart="252.00" from="1i" to="2o" type="SUMO_DEFAULT_TYPE"/>
    <trip id="_127" depart="254.00" from="4i" to="4o" type="SUMO_DEFAULT_TYPE"/>
    <trip id="_128" depart="256.00" from="1i" to="1o" type="SUMO_DEFAULT_TYPE"/>
    <trip id="_129" depart="258.00" from="2i" to="4o" type="SUMO_DEFAULT_TYPE"/>
    <trip id="_130" depart="260.00" from="4i" to="4o" type="SUMO_DEFAULT_TYPE"/>
    <trip id="_131" depart="262.00" from="2i" to="1o" type="SUMO_DEFAULT_TYPE"/>
    <trip id="_132" depart="264.00" from="4i" to="3o" type="SUMO_DEFAULT_TYPE"/>
    <trip id="_133" depart="266.00" from="3i" to="4o" type="SUMO_DEFAULT_TYPE"/>
    <trip id="_134" depart="268.00" from="3i" to="1o" type="SUMO_DEFAULT_TYPE"/>
    <trip id="_135" depart="270.00" from="4i" to="2o" type="SUMO_DEFAULT_TYPE"/>
    <trip id="_136" depart="272.00" from="3i" to="4o" type="SUMO_DEFAULT_TYPE"/>
    <trip id="_137" depart="274.00" from="1i" to="1o" type="SUMO_DEFAULT_TYPE"/>
    <trip id="_138" depart="276.00" from="1i" to="3o" type="SUMO_DEFAULT_TYPE"/>
    <trip id="_139" depart="278.00" from="2i" to="3o" type="SUMO_DEFAULT_TYPE"/>
    <trip id="_140" depart="280.00" from="3i" to="1o" type="SUMO_DEFAULT_TYPE"/>
    <trip id="_141" depart="282.00" from="3i" to="2o" type="SUMO_DEFAULT_TYPE"/>
    <trip id="_142" depart="284.00" from="2i" to="4o" type="SUMO_DEFAULT_TYPE"/>
    <trip id="_143" depart="286.00" from="4i" to="1o" type="SUMO_DEFAULT_TYPE"/>
    <trip id="_144" depart="288.00" from="2i" to="2o" type="SUMO_DEFAULT_TYPE"/>
    <trip id="_145" depart="290.00" from="1i" to="4o" type="SUMO_DEFAULT_TYPE"/>
    <trip id="_146" depart="292.00" from="3i" to="2o" type="SUMO_DEFAULT_TYPE"/>
    <trip id="_147" depart="294.00" from="3i" to="3o" type="SUMO_DEFAULT_TYPE"/>
    <trip id="_148" depart="296.00" from="2i" to="1o" type="SUMO_DEFAULT_TYPE"/>
    <trip id="_149" depart="298.00" from="1i" to="4o" type="SUMO_DEFAULT_TYPE"/>
    <trip id="_150" depart="300.00" from="4i" to="3o" type="SUMO_DEFAULT_TYPE"/>
    <trip id="_151" depart="302.00" from="4i" to="3o" type="SUMO_DEFAULT_TYPE"/>
    <trip id="_152" depart="304.00" from="1i" to="1o" type="SUMO_DEFAULT_TYPE"/>
    <trip id="_153" depart="306.00" from="2i" to="4o" type="SUMO_DEFAULT_TYPE"/>
    <trip id="_154" depart="308.00" from="4i" to="4o" type="SUMO_DEFAULT_TYPE"/>
    <trip id="_155" depart="310.00" from="4i" to="1o" type="SUMO_DEFAULT_TYPE"/>
    <trip id="_156" depart="312.00" from="1i" to="1o" type="SUMO_DEFAULT_TYPE"/>
    <trip id="_157" depart="314.00" from="4i" to="4o" type="SUMO_DEFAULT_TYPE"/>
    <trip id="_158" depart="316.00" from="2i" to="3o" type="SUMO_DEFAULT_TYPE"/>
    <trip id="_159" depart="318.00" from="1i" to="4o" type="SUMO_DEFAULT_TYPE"/>
    <trip id="_160" depart="320.00" from="4i" to="4o" type="SUMO_DEFAULT_TYPE"/>
    <trip id="_161" depart="322.00" from="4i" to="4o" type="SUMO_DEFAULT_TYPE"/>
    <trip id="_162" depart="324.00" from="1i" to="3o" type="SUMO_DEFAULT_TYPE"/>
    <trip id="_163" depart="326.00" from="2i" to="4o" type="SUMO_DEFAULT_TYPE"/>
    <trip id="_164" depart="328.00" from="4i" to="4o" type="SUMO_DEFAULT_TYPE"/>
    <trip id="_165" depart="330.00" from="4i" to="2o" type="SUMO_DEFAULT_TYPE"/>
    <trip id="_166" depart="332.00" from="4i" to="1o" type="SUMO_DEFAULT_TYPE"/>
    <trip id="_167" depart="334.00" from="4i" to="4o" type="SUMO_DEFAULT_TYPE"/>
    <trip id="_168" depart="336.00" from="1i" to="4o" type="SUMO_DEFAULT_TYPE"/>
    <trip id="_169" depart="338.00" from="2i" to="2o" type="SUMO_DEFAULT_TYPE"/>
    <trip id="_170" depart="340.00" from="4i" to="1o" type="SUMO_DEFAULT_TYPE"/>
    <trip id="_171" depart="342.00" from="1i" to="1o" type="SUMO_DEFAULT_TYPE"/>
    <trip id="_172" depart="344.00" from="2i" to="4o" type="SUMO_DEFAULT_TYPE"/>
    <trip id="_173" depart="346.00" from="4i" to="2o" type="SUMO_DEFAULT_TYPE"/>
    <trip id="_174" depart="348.00" from="3i" to="2o" type="SUMO_DEFAULT_TYPE"/>
    <trip id="_175" depart="350.00" from="4i" to="3o" type="SUMO_DEFAULT_TYPE"/>
    <trip id="_176" depart="352.00" from="4i" to="1o" type="SUMO_DEFAULT_TYPE"/>
    <trip id="_177" depart="354.00" from="4i" to="1o" type="SUMO_DEFAULT_TYPE"/>
    <trip id="_178" depart="356.00" from="4i" to="2o" type="SUMO_DEFAULT_TYPE"/>
    <trip id="_179" depart="358.00" from="1i" to="2o" type="SUMO_DEFAULT_TYPE"/>
    <trip id="_180" depart="360.00" from="3i" to="2o" type="SUMO_DEFAULT_TYPE"/>
    <trip id="_181" depart="362.00" from="3i" to="3o" type="SUMO_DEFAULT_TYPE"/>
    <trip id="_182" depart="364.00" from="2i" to="3o" type="SUMO_DEFAULT_TYPE"/>
    <trip id="_183" depart="366.00" from="2i" to="3o" type="SUMO_DEFAULT_TYPE"/>
    <trip id="_184" depart="368.00" from="1i" to="4o" type="SUMO_DEFAULT_TYPE"/>
    <trip id="_185" depart="370.00" from="3i" to="3o" type="SUMO_DEFAULT_TYPE"/>
    <trip id="_186" depart="372.00" from="3i" to="3o" type="SUMO_DEFAULT_TYPE"/>
    <trip id="_187" depart="374.00" from="2i" to="1o" type="SUMO_DEFAULT_TYPE"/>
    <trip id="_188" depart="376.00" from="3i" to="2o" type="SUMO_DEFAULT_TYPE"/>
    <trip id="_189" depart="378.00" from="2i" to="4o" type="SUMO_DEFAULT_TYPE"/>
    <trip id="_190" depart="380.00" from="3i" to="2o" type="SUMO_DEFAULT_TYPE"/>
    <trip id="_191" depart="382.00" from="2i" to="2o" type="SUMO_DEFAULT_TYPE"/>
    <trip id="_192" depart="384.00" from="2i" to="2o" type="SUMO_DEFAULT_TYPE"/>
    <trip id="_193" depart="386.00" from="1i" to="2o" type="SUMO_DEFAULT_TYPE"/>
    <trip id="_194" depart="388.00" from="4i" to="3o" type="SUMO_DEFAULT_TYPE"/>
    <trip id="_195" depart="390.00" from="4i" to="3o" type="SUMO_DEFAULT_TYPE"/>
    <trip id="_196" depart="392.00" from="2i" to="3o" type="SUMO_DEFAULT_TYPE"/>
    <trip id="_197" depart="394.00" from="1i" to="2o" type="SUMO_DEFAULT_TYPE"/>
    <trip id="_198" depart="396.00" from="2i" to="3o" type="SUMO_DEFAULT_TYPE"/>
    <trip id="_199" depart="398.00" from="3i" to="2o" type="SUMO_DEFAULT_TYPE"/>
    <trip id="_200" depart="400.00" from="2i" to="1o" type="SUMO_DEFAULT_TYPE"/>
    <trip id="_201" depart="402.00" from="2i" to="4o" type="SUMO_DEFAULT_TYPE"/>
    <trip id="_202" depart="404.00" from="4i" to="1o" type="SUMO_DEFAULT_TYPE"/>
    <trip id="_203" depart="406.00" from="1i" to="3o" type="SUMO_DEFAULT_TYPE"/>
    <trip id="_204" depart="408.00" from="3i" to="2o" type="SUMO_DEFAULT_TYPE"/>
    <trip id="_205" depart="410.00" from="4i" to="4o" type="SUMO_DEFAULT_TYPE"/>
    <trip id="_206" depart="412.00" from="3i" to="1o" type="SUMO_DEFAULT_TYPE"/>
    <trip id="_207" depart="414.00" from="1i" to="1o" type="SUMO_DEFAULT_TYPE"/>
    <trip id="_208" depart="416.00" from="1i" to="2o" type="SUMO_DEFAULT_TYPE"/>
    <trip id="_209" depart="418.00" from="4i" to="1o" type="SUMO_DEFAULT_TYPE"/>
    <trip id="_210" depart="420.00" from="2i" to="3o" type="SUMO_DEFAULT_TYPE"/>
    <trip id="_211" depart="422.00" from="1i" to="3o" type="SUMO_DEFAULT_TYPE"/>
    <trip id="_212" depart="424.00" from="2i" to="1o" type="SUMO_DEFAULT_TYPE"/>
    <trip id="_213" depart="426.00" from="3i" to="1o" type="SUMO_DEFAULT_TYPE"/>
    <trip id="_214" depart="428.00" from="4i" to="4o" type="SUMO_DEFAULT_TYPE"/>
    <trip id="_215" depart="430.00" from="1i" to="2o" type="SUMO_DEFAULT_TYPE"/>
    <trip id="_216" depart="432.00" from="1i" to="4o" type="SUMO_DEFAULT_TYPE"/>
    <trip id="_217" depart="434.00" from="3i" to="1o" type="SUMO_DEFAULT_TYPE"/>
    <trip id="_218" depart="436.00" from="1i" to="4o" type="SUMO_DEFAULT_TYPE"/>
    <trip id="_219" depart="438.00" from="2i" to="4o" type="SUMO_DEFAULT_TYPE"/>
    <trip id="_220" depart="440.00" from="3i" to="4o" type="SUMO_DEFAULT_TYPE"/>
    <trip id="_221" depart="442.00" from="3i" to="4o" type="SUMO_DEFAULT_TYPE"/>
    <trip id="_222" depart="444.00" from="4i" to="3o" type="SUMO_DEFAULT_TYPE"/>
    <trip id="_223" depart="446.00" from="3i" to="3o" type="SUMO_DEFAULT_TYPE"/>
    <trip id="_224" depart="448.00" from="4i" to="3o" type="SUMO_DEFAULT_TYPE"/>
    <trip id="_225" depart="450.00" from="4i" to="3o" type="SUMO_DEFAULT_TYPE"/>
    <trip id="_226" depart="452.00" from="2i" to="2o" type="SUMO_DEFAULT_TYPE"/>
    <trip id="_227" depart="454.00" from="1i" to="3o" type="SUMO_DEFAULT_TYPE"/>
    <trip id="_228" depart="456.00" from="4i" to="3o" type="SUMO_DEFAULT_TYPE"/>
    <trip id="_229" depart="458.00" from="3i" to="2o" type="SUMO_DEFAULT_TYPE"/>
    <trip id="_230" depart="460.00" from="1i" to="2o" type="SUMO_DEFAULT_TYPE"/>
    <trip id="_231" depart="462.00" from="2i" to="2o" type="SUMO_DEFAULT_TYPE"/>
    <trip id="_232" depart="464.00" from="3i" to="1o" type="SUMO_DEFAULT_TYPE"/>
    <trip id="_233" depart="466.00" from="1i" to="3o" type="SUMO_DEFAULT_TYPE"/>
    <trip id="_234" depart="468.00" from="3i" to="1o" type="SUMO_DEFAULT_TYPE"/>
    <trip id="_235" depart="470.00" from="2i" to="3o" type="SUMO_DEFAULT_TYPE"/>
    <trip id="_236" depart="472.00" from="2i" to="1o" type="SUMO_DEFAULT_TYPE"/>
    <trip id="_237" depart="474.00" from="2i" to="4o" type="SUMO_DEFAULT_TYPE"/>
    <trip id="_238" depart="476.00" from="3i" to="3o" type="SUMO_DEFAULT_TYPE"/>
    <trip id="_239" depart="478.00" from="4i" to="4o" type="SUMO_DEFAULT_TYPE"/>
    <trip id="_240" depart="480.00" from="2i" to="1o" type="SUMO_DEFAULT_TYPE"/>
    <trip id="_241" depart="482.00" from="2i" to="4o" type="SUMO_DEFAULT_TYPE"/>
    <trip id="_242" depart="484.00" from="4i" to="4o" type="SUMO_DEFAULT_TYPE"/>
    <trip id="_243" depart="486.00" from="2i" to="3o" type="SUMO_DEFAULT_TYPE"/>
    <trip id="_244" depart="488.00" from="3i" to="3o" type="SUMO_DEFAULT_TYPE"/>
    <trip id="_245" depart="490.00" from="1i" to="1o" type="SUMO_DEFAULT_TYPE"/>
    <trip id="_246" depart="492.00" from="2i" to="1o" type="SUMO_DEFAULT_TYPE"/>
    <trip id="_247" depart="494.00" from="2i" to="3o" type="SUMO_DEFAULT_TYPE"/>
    <trip id="_248" depart="496.00" from="2i" to="1o" type="SUMO_DEFAULT_TYPE"/>
    <trip id="_249" depart="498.00" from="2i" to="1o" type="SUMO_DEFAULT_TYPE"/>
    <trip id="_250" depart="500.00" from="3i" to="1o" type="SUMO_DEFAULT_TYPE"/>
    <trip id="_251" depart="502.00" from="2i" to="3o" type="SUMO_DEFAULT_TYPE"/>
    <trip id="_252" depart="504.00" from="1i" to="3o" type="SUMO_DEFAULT_TYPE"/>
    <trip id="_253" depart="506.00" from="1i" to="2o" type="SUMO_DEFAULT_TYPE"/>
    <trip id="_254" depart="508.00" from="1i" to="2o" type="SUMO_DEFAULT_TYPE"/>
    <trip id="_255" depart="510.00" from="1i" to="2o" type="SUMO_DEFAULT_TYPE"/>
    <trip id="_256" depart="512.00" from="4i" to="2o" type="SUMO_DEFAULT_TYPE"/>
    <trip id="_257" depart="514.00" from="4i" to="4o" type="SUMO_DEFAULT_TYPE"/>
    <trip id="_258" depart="516.00" from="2i" to="1o" type="SUMO_DEFAULT_TYPE"/>
    <trip id="_259" depart="518.00" from="1i" to="3o" type="SUMO_DEFAULT_TYPE"/>
    <trip id="_260" depart="520.00" from="4i" to="2o" type="SUMO_DEFAULT_TYPE"/>
    <trip id="_261" depart="522.00" from="3i" to="4o" type="SUMO_DEFAULT_TYPE"/>
    <trip id="_262" depart="524.00" from="3i" to="4o" type="SUMO_DEFAULT_TYPE"/>
    <trip id="_263" depart="526.00" from="4i" to="1o" type="SUMO_DEFAULT_TYPE"/>
    <trip id="_264" depart="528.00" from="1i" to="1o" type="SUMO_DEFAULT_TYPE"/>
    <trip id="_265" depart="530.00" from="1i" to="3o" type="SUMO_DEFAULT_TYPE"/>
    <trip id="_266" depart="532.00" from="3i" to="1o" type="SUMO_DEFAULT_TYPE"/>
    <trip id="_267" depart="534.00" from="3i" to="4o" type="SUMO_DEFAULT_TYPE"/>
    <trip id="_268" depart="536.00" from="1i" to="3o" type="SUMO_DEFAULT_TYPE"/>
    <trip id="_269" depart="538.00" from="3i" to="1o" type="SUMO_DEFAULT_TYPE"/>
    <trip id="_270" depart="540.00" from="4i" to="4o" type="SUMO_DEFAULT_TYPE"/>
    <trip id="_271" depart="542.00" from="1i" to="1o" type="SUMO_DEFAULT_TYPE"/>
    <trip id="_272" depart="544.00" from="2i" to="3o" type="SUMO_DEFAULT_TYPE"/>
    <trip id="_273" depart="546.00" from="4i" to="2o" type="SUMO_DEFAULT_TYPE"/>
    <trip id="_274" depart="548.00" from="3i" to="1o" type="SUMO_DEFAULT_TYPE"/>
    <trip id="_275" depart="550.00" from="3i" to="3o" type="SUMO_DEFAULT_TYPE"/>
    <trip id="_276" depart="552.00" from="1i" to="4o" type="SUMO_DEFAULT_TYPE"/>
    <trip id="_277" depart="554.00" from="4i" to="3o" type="SUMO_DEFAULT_TYPE"/>
    <trip id="_278" depart="556.00" from="1i" to="4o" type="SUMO_DEFAULT_TYPE"/>
    <trip id="_279" depart="558.00" from="4i" to="2o" type="SUMO_DEFAULT_TYPE"/>
    <trip id="_280" depart="560.00" from="2i" to="2o" type="SUMO_DEFAULT_TYPE"/>
    <trip id="_281" depart="562.00" from="3i" to="2o" type="SUMO_DEFAULT_TYPE"/>
    <trip id="_282" depart="564.00" from="4i" to="4o" type="SUMO_DEFAULT_TYPE"/>
    <trip id="_283" depart="566.00" from="1i" to="4o" type="SUMO_DEFAULT_TYPE"/>
    <trip id="_284" depart="568.00" from="3i" to="4o" type="SUMO_DEFAULT_TYPE"/>
    <trip id="_285" depart="570.00" from="3i" to="2o" type="SUMO_DEFAULT_TYPE"/>
    <trip id="_286" depart="572.00" from="3i" to="4o" type="SUMO_DEFAULT_TYPE"/>
    <trip id="_287" depart="574.00" from="2i" to="4o" type="SUMO_DEFAULT_TYPE"/>
    <trip id="_288" depart="576.00" from="3i" to="2o" type="SUMO_DEFAULT_TYPE"/>
    <trip id="_289" depart="578.00" from="2i" to="3o" type="SUMO_DEFAULT_TYPE"/>
    <trip id="_290" depart="580.00" from="2i" to="4o" type="SUMO_DEFAULT_TYPE"/>
    <trip id="_291" depart="582.00" from="4i" to="1o" type="SUMO_DEFAULT_TYPE"/>
    <trip id="_292" depart="584.00" from="4i" to="1o" type="SUMO_DEFAULT_TYPE"/>
    <trip id="_293" depart="586.00" from="2i" to="3o" type="SUMO_DEFAULT_TYPE"/>
    <trip id="_294" depart="588.00" from="2i" to="1o" type="SUMO_DEFAULT_TYPE"/>
    <trip id="_295" depart="590.00" from="4i" to="1o" type="SUMO_DEFAULT_TYPE"/>
    <trip id="_296" depart="592.00" from="1i" to="4o" type="SUMO_DEFAULT_TYPE"/>
    <trip id="_297" depart="594.00" from="2i" to="4o" type="SUMO_DEFAULT_TYPE"/>
    <trip id="_298" depart="596.00" from="3i" to="2o" type="SUMO_DEFAULT_TYPE"/>
    <trip id="_299" depart="598.00" from="1i" to="4o" type="SUMO_DEFAULT_TYPE"/>
    <trip id="_300" depart="600.00" from="1i" to="3o" type="SUMO_DEFAULT_TYPE"/>
    <trip id="_301" depart="602.00" from="2i" to="4o" type="SUMO_DEFAULT_TYPE"/>
    <trip id="_302" depart="604.00" from="3i" to="3o" type="SUMO_DEFAULT_TYPE"/>
    <trip id="_303" depart="606.00" from="2i" to="4o" type="SUMO_DEFAULT_TYPE"/>
    <trip id="_304" depart="608.00" from="1i" to="1o" type="SUMO_DEFAULT_TYPE"/>
    <trip id="_305" depart="610.00" from="3i" to="2o" type="SUMO_DEFAULT_TYPE"/>
    <trip id="_306" depart="612.00" from="3i" to="2o" type="SUMO_DEFAULT_TYPE"/>
    <trip id="_307" depart="614.00" from="3i" to="2o" type="SUMO_DEFAULT_TYPE"/>
    <trip id="_308" depart="616.00" from="3i" to="2o" type="SUMO_DEFAULT_TYPE"/>
    <trip id="_309" depart="618.00" from="3i" to="2o" type="SUMO_DEFAULT_TYPE"/>
    <trip id="_310" depart="620.00" from="2i" to="1o" type="SUMO_DEFAULT_TYPE"/>
    <trip id="_311" depart="622.00" from="1i" to="1o" type="SUMO_DEFAULT_TYPE"/>
    <trip id="_312" depart="624.00" from="3i" to="4o" type="SUMO_DEFAULT_TYPE"/>
    <trip id="_313" depart="626.00" from="1i" to="1o" type="SUMO_DEFAULT_TYPE"/>
    <trip id="_314" depart="628.00" from="2i" to="3o" type="SUMO_DEFAULT_TYPE"/>
    <trip id="_315" depart="630.00" from="4i" to="3o" type="SUMO_DEFAULT_TYPE"/>
    <trip id="_316" depart="632.00" from="2i" to="1o" type="SUMO_DEFAULT_TYPE"/>
    <trip id="_317" depart="634.00" from="1i" to="1o" type="SUMO_DEFAULT_TYPE"/>
    <trip id="_318" depart="636.00" from="1i" to="1o" type="SUMO_DEFAULT_TYPE"/>
    <trip id="_319" depart="638.00" from="3i" to="2o" type="SUMO_DEFAULT_TYPE"/>
    <trip id="_320" depart="640.00" from="4i" to="3o" type="SUMO_DEFAULT_TYPE"/>
    <trip id="_321" depart="642.00" from="3i" to="1o" type="SUMO_DEFAULT_TYPE"/>
    <trip id="_322" depart="644.00" from="4i" to="2o" type="SUMO_DEFAULT_TYPE"/>
    <trip id="_323" depart="646.00" from="4i" to="3o" type="SUMO_DEFAULT_TYPE"/>
    <trip id="_324" depart="648.00" from="2i" to="2o" type="SUMO_DEFAULT_TYPE"/>
    <trip id="_325" depart="650.00" from="1i" to="1o" type="SUMO_DEFAULT_TYPE"/>
    <trip id="_326" depart="652.00" from="4i" to="2o" type="SUMO_DEFAULT_TYPE"/>
    <trip id="_327" depart="654.00" from="4i" to="2o" type="SUMO_DEFAULT_TYPE"/>
    <trip id="_328" depart="656.00" from="1i" to="3o" type="SUMO_DEFAULT_TYPE"/>
    <trip id="_329" depart="658.00" from="1i" to="1o" type="SUMO_DEFAULT_TYPE"/>
    <trip id="_330" depart="660.00" from="3i" to="2o" type="SUMO_DEFAULT_TYPE"/>
    <trip id="_331" depart="662.00" from="4i" to="1o" type="SUMO_DEFAULT_TYPE"/>
    <trip id="_332" depart="664.00" from="4i" to="3o" type="SUMO_DEFAULT_TYPE"/>
    <trip id="_333" depart="666.00" from="4i" to="1o" type="SUMO_DEFAULT_TYPE"/>
    <trip id="_334" depart="668.00" from="3i" to="2o" type="SUMO_DEFAULT_TYPE"/>
    <trip id="_335" depart="670.00" from="2i" to="4o" type="SUMO_DEFAULT_TYPE"/>
    <trip id="_336" depart="672.00" from="4i" to="2o" type="SUMO_DEFAULT_TYPE"/>
    <trip id="_337" depart="674.00" from="3i" to="3o" type="SUMO_DEFAULT_TYPE"/>
    <trip id="_338" depart="676.00" from="3i" to="4o" type="SUMO_DEFAULT_TYPE"/>
    <trip id="_339" depart="678.00" from="1i" to="1o" type="SUMO_DEFAULT_TYPE"/>
    <trip id="_340" depart="680.00" from="3i" to="1o" type="SUMO_DEFAULT_TYPE"/>
    <trip id="_341" depart="682.00" from="1i" to="1o" type="SUMO_DEFAULT_TYPE"/>
    <trip id="_342" depart="684.00" from="1i" to="2o" type="SUMO_DEFAULT_TYPE"/>
    <trip id="_343" depart="686.00" from="3i" to="2o" type="SUMO_DEFAULT_TYPE"/>
    <trip id="_344" depart="688.00" from="1i" to="3o" type="SUMO_DEFAULT_TYPE"/>
    <trip id="_345" depart="690.00" from="3i" to="2o" type="SUMO_DEFAULT_TYPE"/>
    <trip id="_346" depart="692.00" from="3i" to="4o" type="SUMO_DEFAULT_TYPE"/>
    <trip id="_347" depart="694.00" from="4i" to="3o" type="SUMO_DEFAULT_TYPE"/>
    <trip id="_348" depart="696.00" from="3i" to="4o" type="SUMO_DEFAULT_TYPE"/>
    <trip id="_349" depart="698.00" from="2i" to="3o" type="SUMO_DEFAULT_TYPE"/>
    <trip id="_350" depart="700.00" from="3i" to="4o" type="SUMO_DEFAULT_TYPE"/>
    <trip id="_351" depart="702.00" from="4i" to="1o" type="SUMO_DEFAULT_TYPE"/>
    <trip id="_352" depart="704.00" from="1i" to="2o" type="SUMO_DEFAULT_TYPE"/>
    <trip id="_353" depart="706.00" from="3i" to="3o" type="SUMO_DEFAULT_TYPE"/>
    <trip id="_354" depart="708.00" from="2i" to="1o" type="SUMO_DEFAULT_TYPE"/>
    <trip id="_355" depart="710.00" from="3i" to="3o" type="SUMO_DEFAULT_TYPE"/>
    <trip id="_356" depart="712.00" from="4i" to="3o" type="SUMO_DEFAULT_TYPE"/>
    <trip id="_357" depart="714.00" from="2i" to="1o" type="SUMO_DEFAULT_TYPE"/>
    <trip id="_358" depart="716.00" from="1i" to="2o" type="SUMO_DEFAULT_TYPE"/>
    <trip id="_359" depart="718.00" from="2i" to="2o" type="SUMO_DEFAULT_TYPE"/>
    <trip id="_360" depart="720.00" from="1i" to="4o" type="SUMO_DEFAULT_TYPE"/>
    <trip id="_361" depart="722.00" from="4i" to="3o" type="SUMO_DEFAULT_TYPE"/>
    <trip id="_362" depart="724.00" from="4i" to="4o" type="SUMO_DEFAULT_TYPE"/>