<?xml version="1.0" encoding="UTF-8"?>

<!-- generated on 2025-05-11 20:19:46 by Eclipse SUMO netedit Version 1.21.0
-->

<additional xmlns:xsi="http://www.w3.org/2001/XMLSchema-instance" xsi:noNamespaceSchemaLocation="http://sumo.dlr.de/xsd/additional_file.xsd">
    <!-- Detectors -->
    <entryExitDetector id="0_east_left" pos="553.88,525.12" period="300.00" file="./detectors.out/0_east_left.xml">
        <detExit lane="2si_2" pos="-1.00"/>
        <detEntry lane="2si_2" pos="146.00"/>
    </entryExitDetector>
    <entryExitDetector id="0_east_right" pos="554.18,544.04" period="300.00" file="./detectors.out/0_east_right.xml">
        <detExit lane="2si_0" pos="-1.00"/>
        <detEntry lane="2si_0" pos="146.00"/>
    </entryExitDetector>
    <entryExitDetector id="0_east_straight" pos="553.58,535.48" period="300.00" file="./detectors.out/0_east_straight.xml">
        <detExit lane="2si_1" pos="-1.00"/>
        <detEntry lane="2si_1" pos="146.00"/>
    </entryExitDetector>
    <entryExitDetector id="0_north_left" pos="477.14,555.87" period="300.00" file="./detectors.out/0_north_left.xml">
        <detExit lane="4si_2" pos="-1.00"/>
        <detEntry lane="4si_2" pos="146.00"/>
    </entryExitDetector>
    <entryExitDetector id="0_north_right" pos="455.86,555.54" period="300.00" file="./detectors.out/0_north_right.xml">
        <detExit lane="4si_0" pos="-1.00"/>
        <detEntry lane="4si_0" pos="146.00"/>
    </entryExitDetector>
    <entryExitDetector id="0_north_straight" pos="466.61,555.76" period="300.00" file="./detectors.out/0_north_straight.xml">
        <detExit lane="4si_1" pos="-1.00"/>
        <detEntry lane="4si_1" pos="146.00"/>
    </entryExitDetector>
    <entryExitDetector id="0_south_left" pos="520.77,444.01" period="300.00" file="./detectors.out/0_south_left.xml">
        <detExit lane="3si_2" pos="-1.00"/>
        <detEntry lane="3si_2" pos="146.00"/>
    </entryExitDetector>
    <entryExitDetector id="0_south_right" pos="540.49,444.01" period="300.00" file="./detectors.out/0_south_right.xml">
        <detExit lane="3si_0" pos="-1.00"/>
        <detEntry lane="3si_0" pos="146.00"/>
    </entryExitDetector>
    <entryExitDetector id="0_south_straight" pos="530.88,443.88" period="300.00" file="./detectors.out/0_south_straight.xml">
        <detExit lane="3si_1" pos="-1.00"/>
        <detEntry lane="3si_1" pos="146.00"/>
    </entryExitDetector>
    <entryExitDetector id="0_west_left" pos="448.47,478.25" period="300.00" file="./detectors.out/0_west_left.xml">
        <detExit lane="1si_2" pos="-1.00"/>
        <detEntry lane="1si_2" pos="146.00"/>
    </entryExitDetector>
    <entryExitDetector id="0_west_right" pos="448.06,454.52" period="300.00" file="./detectors.out/0_west_right.xml">
        <detExit lane="1si_0" pos="-1.00"/>
        <detEntry lane="1si_0" pos="146.00"/>
    </entryExitDetector>
    <entryExitDetector id="0_west_straight" pos="447.97,466.14" period="300.00" file="./detectors.out/0_west_straight.xml">
        <detExit lane="1si_1" pos="-1.00"/>
        <detEntry lane="1si_1" pos="146.00"/>
    </entryExitDetector>
</additional>
